
 OpenBabel07142516103D

 40 42  0  0  0  0  0  0  0  0999 V2000
    1.1435   -0.1351   -0.0588 C   0  0  0  0  0  0  0  0  0  0  0  0
    2.6272    0.0494   -0.0810 C   0  0  0  0  0  0  0  0  0  0  0  0
    3.2125    1.2519   -0.1047 C   0  0  0  0  0  0  0  0  0  0  0  0
    4.6837    1.3386   -0.1264 C   0  0  0  0  0  0  0  0  0  0  0  0
    5.2275    2.4372   -0.1552 O   0  0  0  0  0  0  0  0  0  0  0  0
    5.4454    0.0570   -0.1046 C   0  0  0  0  0  0  0  0  0  0  0  0
    6.9173    0.0832   -0.1016 C   0  0  0  0  0  0  0  0  0  0  0  0
    7.6279    0.0600   -1.3108 C   0  0  0  0  0  0  0  0  0  0  0  0
    9.0238    0.0310   -1.3026 C   0  0  0  0  0  0  0  0  0  0  0  0
    9.7025    0.0301   -0.0894 C   0  0  0  0  0  0  0  0  0  0  0  0
   11.0411   -0.0114   -0.0831 F   0  0  0  0  0  0  0  0  0  0  0  0
    9.0140    0.0718    1.1174 C   0  0  0  0  0  0  0  0  0  0  0  0
    7.6187    0.1019    1.1128 C   0  0  0  0  0  0  0  0  0  0  0  0
    4.7299   -1.0861   -0.0741 C   0  0  0  0  0  0  0  0  0  0  0  0
    3.3456   -1.1323   -0.0712 O   0  0  0  0  0  0  0  0  0  0  0  0
    5.3352   -2.4277   -0.0201 C   0  0  0  0  0  0  0  0  0  0  0  0
    5.6383   -3.0093    1.2202 C   0  0  0  0  0  0  0  0  0  0  0  0
    6.2283   -4.2737    1.2837 C   0  0  0  0  0  0  0  0  0  0  0  0
    6.5016   -4.9658    0.1016 C   0  0  0  0  0  0  0  0  0  0  0  0
    6.2096   -4.3966   -1.1414 C   0  0  0  0  0  0  0  0  0  0  0  0
    5.6206   -3.1306   -1.1988 C   0  0  0  0  0  0  0  0  0  0  0  0
    7.2991   -6.5538    0.1804 S   0  0  0  0  0  0  0  0  0  0  0  0
    5.9470   -7.6971    0.2600 C   0  0  0  0  0  0  0  0  0  0  0  0
    7.9883   -6.7598   -1.0791 O   0  0  0  0  0  0  0  0  0  0  0  0
    8.0158   -6.6186    1.4399 O   0  0  0  0  0  0  0  0  0  0  0  0
    0.6108    0.8216   -0.0504 H   0  0  0  0  0  0  0  0  0  0  0  0
    0.8449   -0.6941    0.8338 H   0  0  0  0  0  0  0  0  0  0  0  0
    0.8189   -0.6940   -0.9421 H   0  0  0  0  0  0  0  0  0  0  0  0
    2.6658    2.1852   -0.1089 H   0  0  0  0  0  0  0  0  0  0  0  0
    7.1017    0.0640   -2.2624 H   0  0  0  0  0  0  0  0  0  0  0  0
    9.5846    0.0071   -2.2313 H   0  0  0  0  0  0  0  0  0  0  0  0
    9.5667    0.0784    2.0512 H   0  0  0  0  0  0  0  0  0  0  0  0
    7.0844    0.1375    2.0593 H   0  0  0  0  0  0  0  0  0  0  0  0
    5.4281   -2.4728    2.1433 H   0  0  0  0  0  0  0  0  0  0  0  0
    6.4816   -4.6997    2.2527 H   0  0  0  0  0  0  0  0  0  0  0  0
    6.4478   -4.9217   -2.0647 H   0  0  0  0  0  0  0  0  0  0  0  0
    5.3979   -2.6899   -2.1683 H   0  0  0  0  0  0  0  0  0  0  0  0
    5.3543   -7.6162   -0.6530 H   0  0  0  0  0  0  0  0  0  0  0  0
    5.3400   -7.4754    1.1397 H   0  0  0  0  0  0  0  0  0  0  0  0
    6.3617   -8.7052    0.3434 H   0  0  0  0  0  0  0  0  0  0  0  0
  1  2  1  0  0  0  0
  1 26  1  0  0  0  0
  1 27  1  0  0  0  0
  1 28  1  0  0  0  0
  2  3  2  0  0  0  0
  2 15  1  0  0  0  0
  3  4  1  0  0  0  0
  3 29  1  0  0  0  0
  4  5  2  0  0  0  0
  4  6  1  0  0  0  0
  6  7  1  0  0  0  0
  6 14  2  0  0  0  0
  7  8  1  0  0  0  0
  7 13  2  0  0  0  0
  8  9  2  0  0  0  0
  8 30  1  0  0  0  0
  9 10  1  0  0  0  0
  9 31  1  0  0  0  0
 10 11  1  0  0  0  0
 10 12  2  0  0  0  0
 12 13  1  0  0  0  0
 12 32  1  0  0  0  0
 13 33  1  0  0  0  0
 14 15  1  0  0  0  0
 14 16  1  0  0  0  0
 16 17  1  0  0  0  0
 16 21  2  0  0  0  0
 17 18  2  0  0  0  0
 17 34  1  0  0  0  0
 18 19  1  0  0  0  0
 18 35  1  0  0  0  0
 19 20  2  0  0  0  0
 19 22  1  0  0  0  0
 20 21  1  0  0  0  0
 20 36  1  0  0  0  0
 21 37  1  0  0  0  0
 22 23  1  0  0  0  0
 22 24  2  0  0  0  0
 22 25  2  0  0  0  0
 23 38  1  0  0  0  0
 23 39  1  0  0  0  0
 23 40  1  0  0  0  0
M  END
$$$$
