
 OpenBabel07142517463D

 41 44  0  0  0  0  0  0  0  0999 V2000
    2.0326   -0.7015    1.2595 N   0  0  0  0  0  0  0  0  0  0  0  0
    2.3435    0.0229   -0.2221 S   0  0  0  0  0  0  0  0  0  0  0  0
    3.4000   -0.7467   -0.8344 O   0  0  0  0  0  0  0  0  0  0  0  0
    1.0550    0.2073   -0.8495 O   0  0  0  0  0  0  0  0  0  0  0  0
    2.9730    1.5956    0.2761 C   0  0  0  0  0  0  0  0  0  0  0  0
    4.3460    1.8183    0.3733 C   0  0  0  0  0  0  0  0  0  0  0  0
    4.8149    3.1017    0.6832 C   0  0  0  0  0  0  0  0  0  0  0  0
    3.9239    4.1561    0.9380 C   0  0  0  0  0  0  0  0  0  0  0  0
    2.5449    3.8922    0.8605 C   0  0  0  0  0  0  0  0  0  0  0  0
    2.0709    2.6314    0.5069 C   0  0  0  0  0  0  0  0  0  0  0  0
    4.3793    5.5298    1.2063 C   0  0  0  0  0  0  0  0  0  0  0  0
    3.6204    6.5804    0.7368 N   0  0  0  0  0  0  0  0  0  0  0  0
    4.1972    7.7913    0.9819 C   0  0  0  0  0  0  0  0  0  0  0  0
    3.7117    9.0671    0.6754 C   0  0  0  0  0  0  0  0  0  0  0  0
    4.5422   10.1515    0.9355 C   0  0  0  0  0  0  0  0  0  0  0  0
    5.8073    9.9543    1.4841 C   0  0  0  0  0  0  0  0  0  0  0  0
    6.2513    8.6701    1.8370 C   0  0  0  0  0  0  0  0  0  0  0  0
    5.4226    7.5409    1.5934 C   0  0  0  0  0  0  0  0  0  0  0  0
    5.4941    6.1103    1.8352 C   0  0  0  0  0  0  0  0  0  0  0  0
    6.5121    5.3083    2.5254 C   0  0  0  0  0  0  0  0  0  0  0  0
    6.1233    4.2298    3.3429 C   0  0  0  0  0  0  0  0  0  0  0  0
    7.0565    3.2933    3.7962 C   0  0  0  0  0  0  0  0  0  0  0  0
    8.4024    3.4715    3.5046 C   0  0  0  0  0  0  0  0  0  0  0  0
    9.5440    2.2757    3.9808 Cl  0  0  0  0  0  0  0  0  0  0  0  0
    8.8232    4.5988    2.7997 C   0  0  0  0  0  0  0  0  0  0  0  0
    7.8797    5.5136    2.3046 C   0  0  0  0  0  0  0  0  0  0  0  0
    2.5349   -1.5880    1.3180 H   0  0  0  0  0  0  0  0  0  0  0  0
    1.0268   -0.7858    1.4055 H   0  0  0  0  0  0  0  0  0  0  0  0
    5.0565    1.0136    0.1965 H   0  0  0  0  0  0  0  0  0  0  0  0
    5.8910    3.2633    0.7105 H   0  0  0  0  0  0  0  0  0  0  0  0
    1.8120    4.6720    1.0567 H   0  0  0  0  0  0  0  0  0  0  0  0
    0.9997    2.4725    0.4056 H   0  0  0  0  0  0  0  0  0  0  0  0
    2.7576    6.4805    0.2216 H   0  0  0  0  0  0  0  0  0  0  0  0
    2.7270    9.2057    0.2388 H   0  0  0  0  0  0  0  0  0  0  0  0
    4.1995   11.1544    0.6912 H   0  0  0  0  0  0  0  0  0  0  0  0
    6.4557   10.8089    1.6405 H   0  0  0  0  0  0  0  0  0  0  0  0
    7.2352    8.5441    2.2700 H   0  0  0  0  0  0  0  0  0  0  0  0
    5.0720    4.0628    3.5639 H   0  0  0  0  0  0  0  0  0  0  0  0
    6.7153    2.4151    4.3388 H   0  0  0  0  0  0  0  0  0  0  0  0
    9.8801    4.7500    2.5966 H   0  0  0  0  0  0  0  0  0  0  0  0
    8.2310    6.3542    1.7129 H   0  0  0  0  0  0  0  0  0  0  0  0
  1  2  1  0  0  0  0
  1 27  1  0  0  0  0
  1 28  1  0  0  0  0
  2  3  2  0  0  0  0
  2  4  2  0  0  0  0
  2  5  1  0  0  0  0
  5  6  1  0  0  0  0
  5 10  2  0  0  0  0
  6  7  2  0  0  0  0
  6 29  1  0  0  0  0
  7  8  1  0  0  0  0
  7 30  1  0  0  0  0
  8  9  2  0  0  0  0
  8 11  1  0  0  0  0
  9 10  1  0  0  0  0
  9 31  1  0  0  0  0
 10 32  1  0  0  0  0
 11 12  1  0  0  0  0
 11 19  2  0  0  0  0
 12 13  1  0  0  0  0
 12 33  1  0  0  0  0
 13 14  1  0  0  0  0
 13 18  2  0  0  0  0
 14 15  2  0  0  0  0
 14 34  1  0  0  0  0
 15 16  1  0  0  0  0
 15 35  1  0  0  0  0
 16 17  2  0  0  0  0
 16 36  1  0  0  0  0
 17 18  1  0  0  0  0
 17 37  1  0  0  0  0
 18 19  1  0  0  0  0
 19 20  1  0  0  0  0
 20 21  1  0  0  0  0
 20 26  2  0  0  0  0
 21 22  2  0  0  0  0
 21 38  1  0  0  0  0
 22 23  1  0  0  0  0
 22 39  1  0  0  0  0
 23 24  1  0  0  0  0
 23 25  2  0  0  0  0
 25 26  1  0  0  0  0
 25 40  1  0  0  0  0
 26 41  1  0  0  0  0
M  END
$$$$
