
 OpenBabel07142516563D

 40 42  0  0  0  0  0  0  0  0999 V2000
    1.0098   -0.0891    0.0417 C   0  0  0  0  0  0  0  0  0  0  0  0
    2.4947    0.0899    0.0073 C   0  0  0  0  0  0  0  0  0  0  0  0
    3.0767    1.2937   -0.0186 C   0  0  0  0  0  0  0  0  0  0  0  0
    4.5449    1.3833   -0.0782 C   0  0  0  0  0  0  0  0  0  0  0  0
    5.0873    2.4801   -0.1686 O   0  0  0  0  0  0  0  0  0  0  0  0
    5.3107    0.1064   -0.0386 C   0  0  0  0  0  0  0  0  0  0  0  0
    6.7803    0.1450   -0.0305 C   0  0  0  0  0  0  0  0  0  0  0  0
    7.5013    0.1228   -1.2327 C   0  0  0  0  0  0  0  0  0  0  0  0
    8.8971    0.0807   -1.2066 C   0  0  0  0  0  0  0  0  0  0  0  0
    9.5647    0.0807    0.0152 C   0  0  0  0  0  0  0  0  0  0  0  0
   10.9022    0.0158    0.0325 F   0  0  0  0  0  0  0  0  0  0  0  0
    8.8685    0.1384    1.2143 C   0  0  0  0  0  0  0  0  0  0  0  0
    7.4795    0.1694    1.1828 C   0  0  0  0  0  0  0  0  0  0  0  0
    6.8087    0.1957    2.3448 F   0  0  0  0  0  0  0  0  0  0  0  0
    4.6018   -1.0417    0.0044 C   0  0  0  0  0  0  0  0  0  0  0  0
    3.2150   -1.0915    0.0008 O   0  0  0  0  0  0  0  0  0  0  0  0
    5.2112   -2.3811    0.0692 C   0  0  0  0  0  0  0  0  0  0  0  0
    5.5214   -2.9601    1.3104 C   0  0  0  0  0  0  0  0  0  0  0  0
    6.0992   -4.2326    1.3803 C   0  0  0  0  0  0  0  0  0  0  0  0
    6.3577   -4.9345    0.1993 C   0  0  0  0  0  0  0  0  0  0  0  0
    6.0618   -4.3726   -1.0427 C   0  0  0  0  0  0  0  0  0  0  0  0
    5.4880   -3.0982   -1.1055 C   0  0  0  0  0  0  0  0  0  0  0  0
    7.1448   -6.5294    0.2801 S   0  0  0  0  0  0  0  0  0  0  0  0
    5.7835   -7.6626    0.3739 C   0  0  0  0  0  0  0  0  0  0  0  0
    7.8222   -6.7442   -0.9851 O   0  0  0  0  0  0  0  0  0  0  0  0
    7.8718   -6.5939    1.5351 O   0  0  0  0  0  0  0  0  0  0  0  0
    0.4829    0.8714    0.0531 H   0  0  0  0  0  0  0  0  0  0  0  0
    0.7125   -0.6448    0.9365 H   0  0  0  0  0  0  0  0  0  0  0  0
    0.6736   -0.6436   -0.8403 H   0  0  0  0  0  0  0  0  0  0  0  0
    2.5255    2.2254   -0.0098 H   0  0  0  0  0  0  0  0  0  0  0  0
    6.9847    0.1306   -2.1898 H   0  0  0  0  0  0  0  0  0  0  0  0
    9.4684    0.0403   -2.1293 H   0  0  0  0  0  0  0  0  0  0  0  0
    9.3985    0.1456    2.1590 H   0  0  0  0  0  0  0  0  0  0  0  0
    5.3214   -2.4164    2.2331 H   0  0  0  0  0  0  0  0  0  0  0  0
    6.3479   -4.6567    2.3490 H   0  0  0  0  0  0  0  0  0  0  0  0
    6.2801   -4.9099   -1.9641 H   0  0  0  0  0  0  0  0  0  0  0  0
    5.2618   -2.6649   -2.0778 H   0  0  0  0  0  0  0  0  0  0  0  0
    5.1899   -7.5857   -0.5391 H   0  0  0  0  0  0  0  0  0  0  0  0
    5.1807   -7.4252    1.2523 H   0  0  0  0  0  0  0  0  0  0  0  0
    6.1901   -8.6722    0.4677 H   0  0  0  0  0  0  0  0  0  0  0  0
  1  2  1  0  0  0  0
  1 27  1  0  0  0  0
  1 28  1  0  0  0  0
  1 29  1  0  0  0  0
  2  3  2  0  0  0  0
  2 16  1  0  0  0  0
  3  4  1  0  0  0  0
  3 30  1  0  0  0  0
  4  5  2  0  0  0  0
  4  6  1  0  0  0  0
  6  7  1  0  0  0  0
  6 15  2  0  0  0  0
  7  8  1  0  0  0  0
  7 13  2  0  0  0  0
  8  9  2  0  0  0  0
  8 31  1  0  0  0  0
  9 10  1  0  0  0  0
  9 32  1  0  0  0  0
 10 11  1  0  0  0  0
 10 12  2  0  0  0  0
 12 13  1  0  0  0  0
 12 33  1  0  0  0  0
 13 14  1  0  0  0  0
 15 16  1  0  0  0  0
 15 17  1  0  0  0  0
 17 18  1  0  0  0  0
 17 22  2  0  0  0  0
 18 19  2  0  0  0  0
 18 34  1  0  0  0  0
 19 20  1  0  0  0  0
 19 35  1  0  0  0  0
 20 21  2  0  0  0  0
 20 23  1  0  0  0  0
 21 22  1  0  0  0  0
 21 36  1  0  0  0  0
 22 37  1  0  0  0  0
 23 24  1  0  0  0  0
 23 25  2  0  0  0  0
 23 26  2  0  0  0  0
 24 38  1  0  0  0  0
 24 39  1  0  0  0  0
 24 40  1  0  0  0  0
M  END
$$$$
