
 OpenBabel07142516413D

 59 62  0  0  0  0  0  0  0  0999 V2000
    2.6253    0.5800   -0.0690 N   0  0  0  0  0  0  0  0  0  0  0  0
    3.0699   -0.3918    1.2255 S   0  0  0  0  0  0  0  0  0  0  0  0
    4.2317    0.2316    1.8145 O   0  0  0  0  0  0  0  0  0  0  0  0
    1.8558   -0.6316    1.9718 O   0  0  0  0  0  0  0  0  0  0  0  0
    3.5559   -1.8877    0.4159 C   0  0  0  0  0  0  0  0  0  0  0  0
    4.8974   -2.1221    0.1016 C   0  0  0  0  0  0  0  0  0  0  0  0
    5.2638   -3.3374   -0.4869 C   0  0  0  0  0  0  0  0  0  0  0  0
    4.2830   -4.2981   -0.7821 C   0  0  0  0  0  0  0  0  0  0  0  0
    2.9458   -4.0645   -0.4340 C   0  0  0  0  0  0  0  0  0  0  0  0
    2.5820   -2.8597    0.1647 C   0  0  0  0  0  0  0  0  0  0  0  0
    4.6603   -5.5067   -1.4293 N   0  0  0  0  0  0  0  0  0  0  0  0
    5.8635   -6.0574   -1.1332 N   0  0  0  0  0  0  0  0  0  0  0  0
    5.8083   -7.3038   -1.6327 C   0  0  0  0  0  0  0  0  0  0  0  0
    4.6464   -7.4697   -2.4188 C   0  0  0  0  0  0  0  0  0  0  0  0
    3.9416   -6.2807   -2.3453 C   0  0  0  0  0  0  0  0  0  0  0  0
    2.7480   -5.8774   -3.1034 C   0  0  0  0  0  0  0  0  0  0  0  0
    1.7911   -6.8319   -3.4861 C   0  0  0  0  0  0  0  0  0  0  0  0
    0.6534   -6.4571   -4.2100 C   0  0  0  0  0  0  0  0  0  0  0  0
    0.4486   -5.1209   -4.5418 C   0  0  0  0  0  0  0  0  0  0  0  0
   -0.9583   -4.6541   -5.4117 Cl  0  0  0  0  0  0  0  0  0  0  0  0
    1.3859   -4.1601   -4.1809 C   0  0  0  0  0  0  0  0  0  0  0  0
    2.5411   -4.5434   -3.4957 C   0  0  0  0  0  0  0  0  0  0  0  0
    6.8442   -8.3155   -1.4046 C   0  0  0  0  0  0  0  0  0  0  0  0
    6.7842   -9.4460   -1.8861 O   0  0  0  0  0  0  0  0  0  0  0  0
    7.8588   -7.8760   -0.6033 O   0  0  0  0  0  0  0  0  0  0  0  0
    8.9175   -8.8106   -0.3742 C   0  0  0  0  0  0  0  0  0  0  0  0
    9.8920   -8.8389   -1.5490 C   0  0  0  0  0  0  0  0  0  0  0  0
   10.5305   -7.4635   -1.7931 C   0  0  0  0  0  0  0  0  0  0  0  0
   11.4512   -7.4449   -2.9435 N   0  0  0  0  0  0  0  0  0  0  0  0
   12.6093   -8.3553   -2.8037 C   0  0  0  0  0  0  0  0  0  0  0  0
   13.6253   -7.8996   -1.7456 C   0  0  0  0  0  0  0  0  0  0  0  0
   14.1157   -6.5844   -2.0343 O   0  0  0  0  0  0  0  0  0  0  0  0
   13.0381   -5.6434   -2.1295 C   0  0  0  0  0  0  0  0  0  0  0  0
   11.9883   -6.0803   -3.1692 C   0  0  0  0  0  0  0  0  0  0  0  0
    3.1446    1.4586   -0.0224 H   0  0  0  0  0  0  0  0  0  0  0  0
    1.6132    0.7088   -0.0765 H   0  0  0  0  0  0  0  0  0  0  0  0
    5.6580   -1.3722    0.3072 H   0  0  0  0  0  0  0  0  0  0  0  0
    6.3075   -3.5113   -0.7462 H   0  0  0  0  0  0  0  0  0  0  0  0
    2.1766   -4.8169   -0.5934 H   0  0  0  0  0  0  0  0  0  0  0  0
    1.5434   -2.6891    0.4386 H   0  0  0  0  0  0  0  0  0  0  0  0
    4.3914   -8.3459   -3.0030 H   0  0  0  0  0  0  0  0  0  0  0  0
    1.9192   -7.8809   -3.2281 H   0  0  0  0  0  0  0  0  0  0  0  0
   -0.0683   -7.2136   -4.5091 H   0  0  0  0  0  0  0  0  0  0  0  0
    1.2330   -3.1135   -4.4307 H   0  0  0  0  0  0  0  0  0  0  0  0
    3.2725   -3.7718   -3.2676 H   0  0  0  0  0  0  0  0  0  0  0  0
    8.5162   -9.8113   -0.1715 H   0  0  0  0  0  0  0  0  0  0  0  0
    9.4376   -8.4933    0.5352 H   0  0  0  0  0  0  0  0  0  0  0  0
    9.3738   -9.1563   -2.4614 H   0  0  0  0  0  0  0  0  0  0  0  0
   10.6537   -9.5901   -1.3202 H   0  0  0  0  0  0  0  0  0  0  0  0
   11.0192   -7.1282   -0.8720 H   0  0  0  0  0  0  0  0  0  0  0  0
    9.7238   -6.7461   -1.9971 H   0  0  0  0  0  0  0  0  0  0  0  0
   13.1153   -8.3880   -3.7776 H   0  0  0  0  0  0  0  0  0  0  0  0
   12.2928   -9.3846   -2.6123 H   0  0  0  0  0  0  0  0  0  0  0  0
   14.4841   -8.5783   -1.7471 H   0  0  0  0  0  0  0  0  0  0  0  0
   13.1986   -7.9151   -0.7363 H   0  0  0  0  0  0  0  0  0  0  0  0
   13.4702   -4.6824   -2.4264 H   0  0  0  0  0  0  0  0  0  0  0  0
   12.5938   -5.5071   -1.1372 H   0  0  0  0  0  0  0  0  0  0  0  0
   12.4618   -6.0755   -4.1599 H   0  0  0  0  0  0  0  0  0  0  0  0
   11.1751   -5.3470   -3.2187 H   0  0  0  0  0  0  0  0  0  0  0  0
  1  2  1  0  0  0  0
  1 35  1  0  0  0  0
  1 36  1  0  0  0  0
  2  3  2  0  0  0  0
  2  4  2  0  0  0  0
  2  5  1  0  0  0  0
  5  6  1  0  0  0  0
  5 10  2  0  0  0  0
  6  7  2  0  0  0  0
  6 37  1  0  0  0  0
  7  8  1  0  0  0  0
  7 38  1  0  0  0  0
  8  9  2  0  0  0  0
  8 11  1  0  0  0  0
  9 10  1  0  0  0  0
  9 39  1  0  0  0  0
 10 40  1  0  0  0  0
 11 12  1  0  0  0  0
 11 15  1  0  0  0  0
 12 13  2  0  0  0  0
 13 14  1  0  0  0  0
 13 23  1  0  0  0  0
 14 15  2  0  0  0  0
 14 41  1  0  0  0  0
 15 16  1  0  0  0  0
 16 17  1  0  0  0  0
 16 22  2  0  0  0  0
 17 18  2  0  0  0  0
 17 42  1  0  0  0  0
 18 19  1  0  0  0  0
 18 43  1  0  0  0  0
 19 20  1  0  0  0  0
 19 21  2  0  0  0  0
 21 22  1  0  0  0  0
 21 44  1  0  0  0  0
 22 45  1  0  0  0  0
 23 24  2  0  0  0  0
 23 25  1  0  0  0  0
 25 26  1  0  0  0  0
 26 27  1  0  0  0  0
 26 46  1  0  0  0  0
 26 47  1  0  0  0  0
 27 28  1  0  0  0  0
 27 48  1  0  0  0  0
 27 49  1  0  0  0  0
 28 29  1  0  0  0  0
 28 50  1  0  0  0  0
 28 51  1  0  0  0  0
 29 30  1  0  0  0  0
 29 34  1  0  0  0  0
 30 31  1  0  0  0  0
 30 52  1  0  0  0  0
 30 53  1  0  0  0  0
 31 32  1  0  0  0  0
 31 54  1  0  0  0  0
 31 55  1  0  0  0  0
 32 33  1  0  0  0  0
 33 34  1  0  0  0  0
 33 56  1  0  0  0  0
 33 57  1  0  0  0  0
 34 58  1  0  0  0  0
 34 59  1  0  0  0  0
M  END
$$$$
