
 OpenBabel07142516453D

 55 57  0  0  1  0  0  0  0  0999 V2000
    4.8711    1.4267   -1.2932 C   0  0  0  0  0  0  0  0  0  0  0  0
    3.6535    0.5141   -1.4479 C   0  0  0  0  0  0  0  0  0  0  0  0
    2.9625    0.8089   -2.7836 C   0  0  0  0  0  0  0  0  0  0  0  0
    4.0199   -0.9852   -1.3665 C   0  0  0  0  0  0  0  0  0  0  0  0
    4.6483   -1.4205   -0.0315 C   0  0  3  0  0  0  0  0  0  0  0  0
    3.7906   -1.0884    1.0566 O   0  0  0  0  0  0  0  0  0  0  0  0
    5.0469   -2.8804   -0.0039 C   0  0  0  0  0  0  0  0  0  0  0  0
    6.3845   -3.3302    0.1484 C   0  0  0  0  0  0  0  0  0  0  0  0
    6.4246   -4.7162    0.1480 C   0  0  0  0  0  0  0  0  0  0  0  0
    7.6473   -5.5550    0.2319 C   0  0  0  0  0  0  0  0  0  0  0  0
    8.7141   -5.1662    1.0640 C   0  0  0  0  0  0  0  0  0  0  0  0
    9.8447   -5.9821    1.2216 C   0  0  0  0  0  0  0  0  0  0  0  0
    9.9029   -7.2098    0.5591 C   0  0  0  0  0  0  0  0  0  0  0  0
    8.8867   -7.5877   -0.3156 C   0  0  0  0  0  0  0  0  0  0  0  0
    7.7903   -6.7398   -0.5066 C   0  0  0  0  0  0  0  0  0  0  0  0
   11.3094   -8.2756    0.7780 S   0  0  0  0  0  0  0  0  0  0  0  0
   10.8805   -9.2531    2.1955 C   0  0  0  0  0  0  0  0  0  0  0  0
   11.3712   -9.1582   -0.3714 O   0  0  0  0  0  0  0  0  0  0  0  0
   12.4343   -7.4366    1.1330 O   0  0  0  0  0  0  0  0  0  0  0  0
    5.0926   -5.1544    0.0147 N   0  0  0  0  0  0  0  0  0  0  0  0
    4.2588   -4.0267   -0.0884 C   0  0  0  0  0  0  0  0  0  0  0  0
    2.7640   -4.0914   -0.1820 C   0  0  0  0  0  0  0  0  0  0  0  0
    4.6473   -6.5168    0.0102 C   0  0  0  0  0  0  0  0  0  0  0  0
    3.6887   -6.9462   -0.9225 C   0  0  0  0  0  0  0  0  0  0  0  0
    3.2814   -8.2834   -0.9557 C   0  0  0  0  0  0  0  0  0  0  0  0
    3.8650   -9.2087   -0.0939 C   0  0  0  0  0  0  0  0  0  0  0  0
    4.8255   -8.7843    0.8160 C   0  0  0  0  0  0  0  0  0  0  0  0
    5.4191   -9.6822    1.6135 F   0  0  0  0  0  0  0  0  0  0  0  0
    5.1979   -7.4465    0.9004 C   0  0  0  0  0  0  0  0  0  0  0  0
    4.5822    2.4783   -1.3981 H   0  0  0  0  0  0  0  0  0  0  0  0
    5.6298    1.2077   -2.0518 H   0  0  0  0  0  0  0  0  0  0  0  0
    5.3304    1.3195   -0.3064 H   0  0  0  0  0  0  0  0  0  0  0  0
    2.9430    0.7534   -0.6470 H   0  0  0  0  0  0  0  0  0  0  0  0
    3.5953    0.5221   -3.6307 H   0  0  0  0  0  0  0  0  0  0  0  0
    2.7331    1.8757   -2.8802 H   0  0  0  0  0  0  0  0  0  0  0  0
    2.0193    0.2582   -2.8629 H   0  0  0  0  0  0  0  0  0  0  0  0
    4.7015   -1.2415   -2.1882 H   0  0  0  0  0  0  0  0  0  0  0  0
    3.0986   -1.5561   -1.5352 H   0  0  0  0  0  0  0  0  0  0  0  0
    5.5616   -0.8362    0.1287 H   0  0  0  0  0  0  0  0  0  0  0  0
    2.9881   -1.6250    0.9658 H   0  0  0  0  0  0  0  0  0  0  0  0
    7.2529   -2.6864    0.2351 H   0  0  0  0  0  0  0  0  0  0  0  0
    8.6721   -4.2285    1.6120 H   0  0  0  0  0  0  0  0  0  0  0  0
   10.6644   -5.6475    1.8520 H   0  0  0  0  0  0  0  0  0  0  0  0
    8.9310   -8.5334   -0.8520 H   0  0  0  0  0  0  0  0  0  0  0  0
    7.0276   -7.0482   -1.2185 H   0  0  0  0  0  0  0  0  0  0  0  0
    9.9677   -9.8141    1.9843 H   0  0  0  0  0  0  0  0  0  0  0  0
   10.7434   -8.5962    3.0559 H   0  0  0  0  0  0  0  0  0  0  0  0
   11.7029   -9.9468    2.3876 H   0  0  0  0  0  0  0  0  0  0  0  0
    2.3402   -5.0670    0.0574 H   0  0  0  0  0  0  0  0  0  0  0  0
    2.4389   -3.8099   -1.1889 H   0  0  0  0  0  0  0  0  0  0  0  0
    2.2983   -3.4071    0.5302 H   0  0  0  0  0  0  0  0  0  0  0  0
    3.2724   -6.2633   -1.6602 H   0  0  0  0  0  0  0  0  0  0  0  0
    2.5263   -8.6043   -1.6692 H   0  0  0  0  0  0  0  0  0  0  0  0
    3.5849  -10.2565   -0.1314 H   0  0  0  0  0  0  0  0  0  0  0  0
    5.9281   -7.1612    1.6509 H   0  0  0  0  0  0  0  0  0  0  0  0
  1  2  1  0  0  0  0
  1 30  1  0  0  0  0
  1 31  1  0  0  0  0
  1 32  1  0  0  0  0
  2  3  1  0  0  0  0
  2  4  1  0  0  0  0
  2 33  1  0  0  0  0
  3 34  1  0  0  0  0
  3 35  1  0  0  0  0
  3 36  1  0  0  0  0
  4  5  1  0  0  0  0
  4 37  1  0  0  0  0
  4 38  1  0  0  0  0
  5  6  1  0  0  0  0
  5  7  1  0  0  0  0
  5 39  1  0  0  0  0
  6 40  1  0  0  0  0
  7  8  1  0  0  0  0
  7 21  2  0  0  0  0
  8  9  2  0  0  0  0
  8 41  1  0  0  0  0
  9 10  1  0  0  0  0
  9 20  1  0  0  0  0
 10 11  1  0  0  0  0
 10 15  2  0  0  0  0
 11 12  2  0  0  0  0
 11 42  1  0  0  0  0
 12 13  1  0  0  0  0
 12 43  1  0  0  0  0
 13 14  2  0  0  0  0
 13 16  1  0  0  0  0
 14 15  1  0  0  0  0
 14 44  1  0  0  0  0
 15 45  1  0  0  0  0
 16 17  1  0  0  0  0
 16 18  2  0  0  0  0
 16 19  2  0  0  0  0
 17 46  1  0  0  0  0
 17 47  1  0  0  0  0
 17 48  1  0  0  0  0
 20 21  1  0  0  0  0
 20 23  1  0  0  0  0
 21 22  1  0  0  0  0
 22 49  1  0  0  0  0
 22 50  1  0  0  0  0
 22 51  1  0  0  0  0
 23 24  1  0  0  0  0
 23 29  2  0  0  0  0
 24 25  2  0  0  0  0
 24 52  1  0  0  0  0
 25 26  1  0  0  0  0
 25 53  1  0  0  0  0
 26 27  2  0  0  0  0
 26 54  1  0  0  0  0
 27 28  1  0  0  0  0
 27 29  1  0  0  0  0
 29 55  1  0  0  0  0
M  END
$$$$
