
 OpenBabel07142517083D

 35 37  0  0  0  0  0  0  0  0999 V2000
    2.3754    0.7054    0.3270 C   0  0  0  0  0  0  0  0  0  0  0  0
    3.6813   -0.4857    0.4526 S   0  0  0  0  0  0  0  0  0  0  0  0
    4.8961    0.2135    0.8269 O   0  0  0  0  0  0  0  0  0  0  0  0
    3.1993   -1.6094    1.2347 O   0  0  0  0  0  0  0  0  0  0  0  0
    3.8979   -1.0589   -1.2223 C   0  0  0  0  0  0  0  0  0  0  0  0
    4.8397   -0.4382   -2.0414 C   0  0  0  0  0  0  0  0  0  0  0  0
    5.0442   -0.9172   -3.3389 C   0  0  0  0  0  0  0  0  0  0  0  0
    4.3001   -2.0111   -3.8121 C   0  0  0  0  0  0  0  0  0  0  0  0
    3.3843   -2.6507   -2.9668 C   0  0  0  0  0  0  0  0  0  0  0  0
    3.1827   -2.1743   -1.6680 C   0  0  0  0  0  0  0  0  0  0  0  0
    4.4887   -2.4522   -5.1531 N   0  0  0  0  0  0  0  0  0  0  0  0
    5.7213   -2.4835   -5.7687 C   0  0  0  0  0  0  0  0  0  0  0  0
    5.6714   -2.9931   -6.9695 N   0  0  0  0  0  0  0  0  0  0  0  0
    4.3464   -3.2623   -7.1873 C   0  0  0  0  0  0  0  0  0  0  0  0
    3.8593   -3.8663   -8.7099 Cl  0  0  0  0  0  0  0  0  0  0  0  0
    3.5538   -2.9251   -6.0855 C   0  0  0  0  0  0  0  0  0  0  0  0
    2.0792   -2.9098   -5.9553 C   0  0  0  0  0  0  0  0  0  0  0  0
    1.2866   -3.9014   -6.5643 C   0  0  0  0  0  0  0  0  0  0  0  0
   -0.1112   -3.8829   -6.4621 C   0  0  0  0  0  0  0  0  0  0  0  0
   -0.7310   -2.8960   -5.7100 C   0  0  0  0  0  0  0  0  0  0  0  0
   -2.0638   -2.9011   -5.5787 F   0  0  0  0  0  0  0  0  0  0  0  0
    0.0299   -1.9122   -5.1008 C   0  0  0  0  0  0  0  0  0  0  0  0
   -0.5565   -0.9712   -4.3476 F   0  0  0  0  0  0  0  0  0  0  0  0
    1.4152   -1.8914   -5.2538 C   0  0  0  0  0  0  0  0  0  0  0  0
    2.1873    1.1044    1.3264 H   0  0  0  0  0  0  0  0  0  0  0  0
    1.4766    0.2143   -0.0499 H   0  0  0  0  0  0  0  0  0  0  0  0
    2.6884    1.5109   -0.3397 H   0  0  0  0  0  0  0  0  0  0  0  0
    5.4124    0.4157   -1.6886 H   0  0  0  0  0  0  0  0  0  0  0  0
    5.7567   -0.3915   -3.9720 H   0  0  0  0  0  0  0  0  0  0  0  0
    2.8370   -3.5353   -3.2871 H   0  0  0  0  0  0  0  0  0  0  0  0
    2.4771   -2.6840   -1.0133 H   0  0  0  0  0  0  0  0  0  0  0  0
    6.6302   -2.1708   -5.2723 H   0  0  0  0  0  0  0  0  0  0  0  0
    1.7372   -4.7113   -7.1344 H   0  0  0  0  0  0  0  0  0  0  0  0
   -0.7133   -4.6378   -6.9593 H   0  0  0  0  0  0  0  0  0  0  0  0
    1.9519   -1.0676   -4.7943 H   0  0  0  0  0  0  0  0  0  0  0  0
  1  2  1  0  0  0  0
  1 25  1  0  0  0  0
  1 26  1  0  0  0  0
  1 27  1  0  0  0  0
  2  3  2  0  0  0  0
  2  4  2  0  0  0  0
  2  5  1  0  0  0  0
  5  6  1  0  0  0  0
  5 10  2  0  0  0  0
  6  7  2  0  0  0  0
  6 28  1  0  0  0  0
  7  8  1  0  0  0  0
  7 29  1  0  0  0  0
  8  9  2  0  0  0  0
  8 11  1  0  0  0  0
  9 10  1  0  0  0  0
  9 30  1  0  0  0  0
 10 31  1  0  0  0  0
 11 12  1  0  0  0  0
 11 16  1  0  0  0  0
 12 13  2  0  0  0  0
 12 32  1  0  0  0  0
 13 14  1  0  0  0  0
 14 15  1  0  0  0  0
 14 16  2  0  0  0  0
 16 17  1  0  0  0  0
 17 18  1  0  0  0  0
 17 24  2  0  0  0  0
 18 19  2  0  0  0  0
 18 33  1  0  0  0  0
 19 20  1  0  0  0  0
 19 34  1  0  0  0  0
 20 21  1  0  0  0  0
 20 22  2  0  0  0  0
 22 23  1  0  0  0  0
 22 24  1  0  0  0  0
 24 35  1  0  0  0  0
M  END
$$$$
