
 OpenBabel07142517433D

 38 40  0  0  0  0  0  0  0  0999 V2000
    4.4338    0.4769    0.8157 C   0  0  0  0  0  0  0  0  0  0  0  0
    2.9164   -0.2098    0.2046 S   0  0  0  0  0  0  0  0  0  0  0  0
    2.3364   -1.0076    1.2629 O   0  0  0  0  0  0  0  0  0  0  0  0
    2.1585    0.8600   -0.4247 O   0  0  0  0  0  0  0  0  0  0  0  0
    3.4279   -1.3164   -1.0913 C   0  0  0  0  0  0  0  0  0  0  0  0
    3.6784   -2.6526   -0.7779 C   0  0  0  0  0  0  0  0  0  0  0  0
    4.0617   -3.5358   -1.7899 C   0  0  0  0  0  0  0  0  0  0  0  0
    4.1784   -3.1012   -3.1198 C   0  0  0  0  0  0  0  0  0  0  0  0
    3.9413   -1.7538   -3.4174 C   0  0  0  0  0  0  0  0  0  0  0  0
    3.5586   -0.8600   -2.4061 C   0  0  0  0  0  0  0  0  0  0  0  0
    4.4763   -4.0803   -4.1714 C   0  0  0  0  0  0  0  0  0  0  0  0
    3.5511   -4.7710   -4.8569 C   0  0  0  0  0  0  0  0  0  0  0  0
    4.3100   -5.7179   -5.7070 C   0  0  0  0  0  0  0  0  0  0  0  0
    3.7937   -6.4964   -6.4945 O   0  0  0  0  0  0  0  0  0  0  0  0
    5.7829   -5.6420   -5.4317 C   0  0  0  0  0  0  0  0  0  0  0  0
    5.8927   -4.3986   -4.5556 C   0  0  0  0  0  0  0  0  0  0  0  0
    2.0970   -4.6811   -4.8034 C   0  0  0  0  0  0  0  0  0  0  0  0
    1.4109   -3.7951   -5.6424 C   0  0  0  0  0  0  0  0  0  0  0  0
    0.0203   -3.7180   -5.5795 C   0  0  0  0  0  0  0  0  0  0  0  0
   -0.6287   -2.8727   -6.3918 F   0  0  0  0  0  0  0  0  0  0  0  0
   -0.7046   -4.5010   -4.6932 C   0  0  0  0  0  0  0  0  0  0  0  0
   -0.0188   -5.3794   -3.8672 C   0  0  0  0  0  0  0  0  0  0  0  0
   -0.7028   -6.1501   -3.0116 F   0  0  0  0  0  0  0  0  0  0  0  0
    1.3701   -5.4756   -3.9105 C   0  0  0  0  0  0  0  0  0  0  0  0
    4.1853    1.1746    1.6193 H   0  0  0  0  0  0  0  0  0  0  0  0
    4.9448    1.0139    0.0144 H   0  0  0  0  0  0  0  0  0  0  0  0
    5.0607   -0.3257    1.2089 H   0  0  0  0  0  0  0  0  0  0  0  0
    3.5909   -3.0130    0.2448 H   0  0  0  0  0  0  0  0  0  0  0  0
    4.2635   -4.5708   -1.5260 H   0  0  0  0  0  0  0  0  0  0  0  0
    4.0386   -1.3860   -4.4381 H   0  0  0  0  0  0  0  0  0  0  0  0
    3.3697    0.1833   -2.6556 H   0  0  0  0  0  0  0  0  0  0  0  0
    6.3495   -5.5431   -6.3624 H   0  0  0  0  0  0  0  0  0  0  0  0
    6.0937   -6.5424   -4.8920 H   0  0  0  0  0  0  0  0  0  0  0  0
    6.3270   -3.5708   -5.1289 H   0  0  0  0  0  0  0  0  0  0  0  0
    6.5382   -4.5916   -3.6923 H   0  0  0  0  0  0  0  0  0  0  0  0
    1.9387   -3.1642   -6.3532 H   0  0  0  0  0  0  0  0  0  0  0  0
   -1.7847   -4.4294   -4.6474 H   0  0  0  0  0  0  0  0  0  0  0  0
    1.8673   -6.1754   -3.2457 H   0  0  0  0  0  0  0  0  0  0  0  0
  1  2  1  0  0  0  0
  1 25  1  0  0  0  0
  1 26  1  0  0  0  0
  1 27  1  0  0  0  0
  2  3  2  0  0  0  0
  2  4  2  0  0  0  0
  2  5  1  0  0  0  0
  5  6  1  0  0  0  0
  5 10  2  0  0  0  0
  6  7  2  0  0  0  0
  6 28  1  0  0  0  0
  7  8  1  0  0  0  0
  7 29  1  0  0  0  0
  8  9  2  0  0  0  0
  8 11  1  0  0  0  0
  9 10  1  0  0  0  0
  9 30  1  0  0  0  0
 10 31  1  0  0  0  0
 11 12  2  0  0  0  0
 11 16  1  0  0  0  0
 12 13  1  0  0  0  0
 12 17  1  0  0  0  0
 13 14  2  0  0  0  0
 13 15  1  0  0  0  0
 15 16  1  0  0  0  0
 15 32  1  0  0  0  0
 15 33  1  0  0  0  0
 16 34  1  0  0  0  0
 16 35  1  0  0  0  0
 17 18  1  0  0  0  0
 17 24  2  0  0  0  0
 18 19  2  0  0  0  0
 18 36  1  0  0  0  0
 19 20  1  0  0  0  0
 19 21  1  0  0  0  0
 21 22  2  0  0  0  0
 21 37  1  0  0  0  0
 22 23  1  0  0  0  0
 22 24  1  0  0  0  0
 24 38  1  0  0  0  0
M  END
$$$$
