
 OpenBabel07142516303D

 50 52  0  0  0  0  0  0  0  0999 V2000
    2.5717   -1.7362   -0.3858 C   0  0  0  0  0  0  0  0  0  0  0  0
    2.4713   -0.2891    0.0866 C   0  0  0  0  0  0  0  0  0  0  0  0
    1.0201    0.1731    0.0810 C   0  0  0  0  0  0  0  0  0  0  0  0
    2.9809   -0.1855    1.4321 O   0  0  0  0  0  0  0  0  0  0  0  0
    4.3444   -0.1142    1.5223 C   0  0  0  0  0  0  0  0  0  0  0  0
    5.1043   -0.0884    0.5558 O   0  0  0  0  0  0  0  0  0  0  0  0
    4.7693   -0.0926    2.9761 C   0  0  0  0  0  0  0  0  0  0  0  0
    6.2704   -0.0571    3.1103 C   0  0  0  0  0  0  0  0  0  0  0  0
    7.0764    1.0726    3.1727 C   0  0  0  0  0  0  0  0  0  0  0  0
    6.6680    2.5098    3.1136 C   0  0  0  0  0  0  0  0  0  0  0  0
    8.4162    0.6726    3.1668 N   0  0  0  0  0  0  0  0  0  0  0  0
    9.5458    1.5425    3.0757 C   0  0  0  0  0  0  0  0  0  0  0  0
    9.4084    2.7071    3.4508 O   0  0  0  0  0  0  0  0  0  0  0  0
   10.8899    1.1516    2.5725 C   0  0  0  0  0  0  0  0  0  0  0  0
   11.0368    0.2471    1.5112 C   0  0  0  0  0  0  0  0  0  0  0  0
   12.3027   -0.2462    1.1879 C   0  0  0  0  0  0  0  0  0  0  0  0
   13.4251    0.2223    1.8697 C   0  0  0  0  0  0  0  0  0  0  0  0
   14.9720   -0.4443    1.5242 Cl  0  0  0  0  0  0  0  0  0  0  0  0
   13.2966    1.2110    2.8445 C   0  0  0  0  0  0  0  0  0  0  0  0
   12.0277    1.6794    3.1959 C   0  0  0  0  0  0  0  0  0  0  0  0
    8.4448   -0.7261    3.2396 C   0  0  0  0  0  0  0  0  0  0  0  0
    9.5121   -1.6376    3.3787 C   0  0  0  0  0  0  0  0  0  0  0  0
    9.2682   -3.0078    3.2688 C   0  0  0  0  0  0  0  0  0  0  0  0
    7.9754   -3.4941    3.1770 C   0  0  0  0  0  0  0  0  0  0  0  0
    7.6234   -4.8073    3.1220 O   0  0  0  0  0  0  0  0  0  0  0  0
    8.4530   -5.7849    3.7393 C   0  0  0  0  0  0  0  0  0  0  0  0
    9.4531   -5.2837    4.4929 F   0  0  0  0  0  0  0  0  0  0  0  0
    7.6816   -6.5489    4.5469 F   0  0  0  0  0  0  0  0  0  0  0  0
    8.9834   -6.5850    2.7893 F   0  0  0  0  0  0  0  0  0  0  0  0
    6.9069   -2.5893    3.0997 C   0  0  0  0  0  0  0  0  0  0  0  0
    7.1336   -1.1935    3.1426 C   0  0  0  0  0  0  0  0  0  0  0  0
    2.1862   -1.8468   -1.4034 H   0  0  0  0  0  0  0  0  0  0  0  0
    2.0102   -2.4030    0.2783 H   0  0  0  0  0  0  0  0  0  0  0  0
    3.6090   -2.0861   -0.3737 H   0  0  0  0  0  0  0  0  0  0  0  0
    3.0361    0.3704   -0.5848 H   0  0  0  0  0  0  0  0  0  0  0  0
    0.4110   -0.4230    0.7709 H   0  0  0  0  0  0  0  0  0  0  0  0
    0.5883    0.0986   -0.9212 H   0  0  0  0  0  0  0  0  0  0  0  0
    0.9479    1.2142    0.4123 H   0  0  0  0  0  0  0  0  0  0  0  0
    4.3798   -0.9956    3.4668 H   0  0  0  0  0  0  0  0  0  0  0  0
    4.3211    0.7756    3.4661 H   0  0  0  0  0  0  0  0  0  0  0  0
    5.5814    2.6174    3.0553 H   0  0  0  0  0  0  0  0  0  0  0  0
    7.0854    2.9937    2.2241 H   0  0  0  0  0  0  0  0  0  0  0  0
    6.9958    3.0475    4.0086 H   0  0  0  0  0  0  0  0  0  0  0  0
   10.1691   -0.1344    0.9762 H   0  0  0  0  0  0  0  0  0  0  0  0
   12.4018   -1.0142    0.4243 H   0  0  0  0  0  0  0  0  0  0  0  0
   14.1759    1.6016    3.3516 H   0  0  0  0  0  0  0  0  0  0  0  0
   11.9295    2.4347    3.9741 H   0  0  0  0  0  0  0  0  0  0  0  0
   10.5340   -1.3115    3.5386 H   0  0  0  0  0  0  0  0  0  0  0  0
   10.1342   -3.6640    3.2599 H   0  0  0  0  0  0  0  0  0  0  0  0
    5.8925   -2.9692    3.0156 H   0  0  0  0  0  0  0  0  0  0  0  0
  1  2  1  0  0  0  0
  1 32  1  0  0  0  0
  1 33  1  0  0  0  0
  1 34  1  0  0  0  0
  2  3  1  0  0  0  0
  2  4  1  0  0  0  0
  2 35  1  0  0  0  0
  3 36  1  0  0  0  0
  3 37  1  0  0  0  0
  3 38  1  0  0  0  0
  4  5  1  0  0  0  0
  5  6  2  0  0  0  0
  5  7  1  0  0  0  0
  7  8  1  0  0  0  0
  7 39  1  0  0  0  0
  7 40  1  0  0  0  0
  8  9  2  0  0  0  0
  8 31  1  0  0  0  0
  9 10  1  0  0  0  0
  9 11  1  0  0  0  0
 10 41  1  0  0  0  0
 10 42  1  0  0  0  0
 10 43  1  0  0  0  0
 11 12  1  0  0  0  0
 11 21  1  0  0  0  0
 12 13  2  0  0  0  0
 12 14  1  0  0  0  0
 14 15  1  0  0  0  0
 14 20  2  0  0  0  0
 15 16  2  0  0  0  0
 15 44  1  0  0  0  0
 16 17  1  0  0  0  0
 16 45  1  0  0  0  0
 17 18  1  0  0  0  0
 17 19  2  0  0  0  0
 19 20  1  0  0  0  0
 19 46  1  0  0  0  0
 20 47  1  0  0  0  0
 21 22  1  0  0  0  0
 21 31  2  0  0  0  0
 22 23  2  0  0  0  0
 22 48  1  0  0  0  0
 23 24  1  0  0  0  0
 23 49  1  0  0  0  0
 24 25  1  0  0  0  0
 24 30  2  0  0  0  0
 25 26  1  0  0  0  0
 26 27  1  0  0  0  0
 26 28  1  0  0  0  0
 26 29  1  0  0  0  0
 30 31  1  0  0  0  0
 30 50  1  0  0  0  0
M  END
$$$$
