
 OpenBabel07142517353D

 42 45  0  0  0  0  0  0  0  0999 V2000
    4.3230   -0.6022    0.9190 C   0  0  0  0  0  0  0  0  0  0  0  0
    2.9357    0.3393    0.3423 S   0  0  0  0  0  0  0  0  0  0  0  0
    1.8715   -0.5850    0.0119 O   0  0  0  0  0  0  0  0  0  0  0  0
    2.7145    1.4275    1.2771 O   0  0  0  0  0  0  0  0  0  0  0  0
    3.5181    1.0554   -1.1764 C   0  0  0  0  0  0  0  0  0  0  0  0
    3.2453    0.4282   -2.3924 C   0  0  0  0  0  0  0  0  0  0  0  0
    3.6199    1.0517   -3.5874 C   0  0  0  0  0  0  0  0  0  0  0  0
    4.3041    2.2771   -3.5823 C   0  0  0  0  0  0  0  0  0  0  0  0
    4.5807    2.8763   -2.3404 C   0  0  0  0  0  0  0  0  0  0  0  0
    4.1720    2.2853   -1.1441 C   0  0  0  0  0  0  0  0  0  0  0  0
    4.6820    2.9667   -4.8327 C   0  0  0  0  0  0  0  0  0  0  0  0
    4.6390    4.3414   -4.8785 N   0  0  0  0  0  0  0  0  0  0  0  0
    4.9396    4.8241   -6.1199 C   0  0  0  0  0  0  0  0  0  0  0  0
    5.0134    6.1557   -6.5430 C   0  0  0  0  0  0  0  0  0  0  0  0
    5.2372    6.3886   -7.8965 C   0  0  0  0  0  0  0  0  0  0  0  0
    5.3770    5.3195   -8.7762 C   0  0  0  0  0  0  0  0  0  0  0  0
    5.5609    5.6478  -10.4584 Cl  0  0  0  0  0  0  0  0  0  0  0  0
    5.3538    3.9884   -8.3247 C   0  0  0  0  0  0  0  0  0  0  0  0
    5.1389    3.7229   -6.9507 C   0  0  0  0  0  0  0  0  0  0  0  0
    5.0831    2.5441   -6.1094 C   0  0  0  0  0  0  0  0  0  0  0  0
    5.3220    1.1314   -6.4358 C   0  0  0  0  0  0  0  0  0  0  0  0
    5.9967    0.3048   -5.5152 C   0  0  0  0  0  0  0  0  0  0  0  0
    6.0099   -1.0828   -5.6677 C   0  0  0  0  0  0  0  0  0  0  0  0
    5.4232   -1.6455   -6.7899 C   0  0  0  0  0  0  0  0  0  0  0  0
    5.3855   -2.9784   -6.9152 F   0  0  0  0  0  0  0  0  0  0  0  0
    4.8576   -0.8430   -7.7746 C   0  0  0  0  0  0  0  0  0  0  0  0
    4.8013    0.5463   -7.5974 C   0  0  0  0  0  0  0  0  0  0  0  0
    4.0373   -1.0799    1.8589 H   0  0  0  0  0  0  0  0  0  0  0  0
    5.1669    0.0693    1.0854 H   0  0  0  0  0  0  0  0  0  0  0  0
    4.5696   -1.3616    0.1761 H   0  0  0  0  0  0  0  0  0  0  0  0
    2.7230   -0.5261   -2.4283 H   0  0  0  0  0  0  0  0  0  0  0  0
    3.3571    0.5660   -4.5251 H   0  0  0  0  0  0  0  0  0  0  0  0
    5.1089    3.8251   -2.2840 H   0  0  0  0  0  0  0  0  0  0  0  0
    4.3534    2.7986   -0.2030 H   0  0  0  0  0  0  0  0  0  0  0  0
    4.3622    4.9289   -4.1065 H   0  0  0  0  0  0  0  0  0  0  0  0
    4.8826    6.9794   -5.8476 H   0  0  0  0  0  0  0  0  0  0  0  0
    5.2831    7.4138   -8.2565 H   0  0  0  0  0  0  0  0  0  0  0  0
    5.4760    3.1783   -9.0360 H   0  0  0  0  0  0  0  0  0  0  0  0
    6.4520    0.7324   -4.6241 H   0  0  0  0  0  0  0  0  0  0  0  0
    6.4419   -1.7201   -4.9030 H   0  0  0  0  0  0  0  0  0  0  0  0
    4.4287   -1.3082   -8.6568 H   0  0  0  0  0  0  0  0  0  0  0  0
    4.3041    1.1477   -8.3529 H   0  0  0  0  0  0  0  0  0  0  0  0
  1  2  1  0  0  0  0
  1 28  1  0  0  0  0
  1 29  1  0  0  0  0
  1 30  1  0  0  0  0
  2  3  2  0  0  0  0
  2  4  2  0  0  0  0
  2  5  1  0  0  0  0
  5  6  1  0  0  0  0
  5 10  2  0  0  0  0
  6  7  2  0  0  0  0
  6 31  1  0  0  0  0
  7  8  1  0  0  0  0
  7 32  1  0  0  0  0
  8  9  2  0  0  0  0
  8 11  1  0  0  0  0
  9 10  1  0  0  0  0
  9 33  1  0  0  0  0
 10 34  1  0  0  0  0
 11 12  1  0  0  0  0
 11 20  2  0  0  0  0
 12 13  1  0  0  0  0
 12 35  1  0  0  0  0
 13 14  1  0  0  0  0
 13 19  2  0  0  0  0
 14 15  2  0  0  0  0
 14 36  1  0  0  0  0
 15 16  1  0  0  0  0
 15 37  1  0  0  0  0
 16 17  1  0  0  0  0
 16 18  2  0  0  0  0
 18 19  1  0  0  0  0
 18 38  1  0  0  0  0
 19 20  1  0  0  0  0
 20 21  1  0  0  0  0
 21 22  1  0  0  0  0
 21 27  2  0  0  0  0
 22 23  2  0  0  0  0
 22 39  1  0  0  0  0
 23 24  1  0  0  0  0
 23 40  1  0  0  0  0
 24 25  1  0  0  0  0
 24 26  2  0  0  0  0
 26 27  1  0  0  0  0
 26 41  1  0  0  0  0
 27 42  1  0  0  0  0
M  END
$$$$
