
 OpenBabel07142517273D

 44 46  0  0  0  0  0  0  0  0999 V2000
    0.9715   -0.1352   -0.0264 C   0  0  0  0  0  0  0  0  0  0  0  0
    2.4561    0.0212   -0.1023 C   0  0  0  0  0  0  0  0  0  0  0  0
    3.0601    1.2051   -0.2080 C   0  0  0  0  0  0  0  0  0  0  0  0
    4.5220    1.2386   -0.3601 C   0  0  0  0  0  0  0  0  0  0  0  0
    5.0445    2.2969   -0.6907 O   0  0  0  0  0  0  0  0  0  0  0  0
    5.2821   -0.0354   -0.0968 C   0  0  0  0  0  0  0  0  0  0  0  0
    6.6792   -0.0279   -0.0233 O   0  0  0  0  0  0  0  0  0  0  0  0
    7.3326    1.0804    0.4815 C   0  0  0  0  0  0  0  0  0  0  0  0
    6.8486    1.7742    1.6008 C   0  0  0  0  0  0  0  0  0  0  0  0
    7.4595    2.9595    2.0126 C   0  0  0  0  0  0  0  0  0  0  0  0
    8.5940    3.4161    1.3502 C   0  0  0  0  0  0  0  0  0  0  0  0
    9.3285    4.8949    1.8357 Cl  0  0  0  0  0  0  0  0  0  0  0  0
    9.1391    2.6829    0.2966 C   0  0  0  0  0  0  0  0  0  0  0  0
    8.5174    1.5022   -0.1470 C   0  0  0  0  0  0  0  0  0  0  0  0
    9.1173    0.7381   -1.2920 C   0  0  0  0  0  0  0  0  0  0  0  0
    4.5484   -1.1719   -0.0201 C   0  0  0  0  0  0  0  0  0  0  0  0
    3.1539   -1.1643   -0.0821 O   0  0  0  0  0  0  0  0  0  0  0  0
    5.0603   -2.5639    0.1564 C   0  0  0  0  0  0  0  0  0  0  0  0
    6.2513   -2.8795    0.8266 C   0  0  0  0  0  0  0  0  0  0  0  0
    6.6180   -4.2116    1.0695 C   0  0  0  0  0  0  0  0  0  0  0  0
    5.7775   -5.2494    0.6646 C   0  0  0  0  0  0  0  0  0  0  0  0
    4.6111   -4.9758   -0.0415 C   0  0  0  0  0  0  0  0  0  0  0  0
    4.2647   -3.6436   -0.2922 C   0  0  0  0  0  0  0  0  0  0  0  0
    6.1923   -6.9328    1.0602 S   0  0  0  0  0  0  0  0  0  0  0  0
    5.3926   -7.1798    2.6259 C   0  0  0  0  0  0  0  0  0  0  0  0
    5.5407   -7.7852    0.0796 O   0  0  0  0  0  0  0  0  0  0  0  0
    7.6245   -6.9901    1.2674 O   0  0  0  0  0  0  0  0  0  0  0  0
    0.4571    0.8313   -0.0143 H   0  0  0  0  0  0  0  0  0  0  0  0
    0.6897   -0.6789    0.8808 H   0  0  0  0  0  0  0  0  0  0  0  0
    0.6097   -0.6979   -0.8932 H   0  0  0  0  0  0  0  0  0  0  0  0
    2.5342    2.1501   -0.2429 H   0  0  0  0  0  0  0  0  0  0  0  0
    5.9614    1.4354    2.1271 H   0  0  0  0  0  0  0  0  0  0  0  0
    7.0314    3.5312    2.8312 H   0  0  0  0  0  0  0  0  0  0  0  0
   10.0399    3.0443   -0.1944 H   0  0  0  0  0  0  0  0  0  0  0  0
   10.0403    1.2109   -1.6470 H   0  0  0  0  0  0  0  0  0  0  0  0
    8.4201    0.6981   -2.1339 H   0  0  0  0  0  0  0  0  0  0  0  0
    9.3725   -0.2786   -0.9762 H   0  0  0  0  0  0  0  0  0  0  0  0
    6.9109   -2.1009    1.2001 H   0  0  0  0  0  0  0  0  0  0  0  0
    7.5493   -4.4231    1.5919 H   0  0  0  0  0  0  0  0  0  0  0  0
    3.9611   -5.7773   -0.3880 H   0  0  0  0  0  0  0  0  0  0  0  0
    3.3368   -3.4598   -0.8348 H   0  0  0  0  0  0  0  0  0  0  0  0
    4.3123   -7.0942    2.4944 H   0  0  0  0  0  0  0  0  0  0  0  0
    5.7565   -6.4322    3.3338 H   0  0  0  0  0  0  0  0  0  0  0  0
    5.6453   -8.1803    2.9833 H   0  0  0  0  0  0  0  0  0  0  0  0
  1  2  1  0  0  0  0
  1 28  1  0  0  0  0
  1 29  1  0  0  0  0
  1 30  1  0  0  0  0
  2  3  2  0  0  0  0
  2 17  1  0  0  0  0
  3  4  1  0  0  0  0
  3 31  1  0  0  0  0
  4  5  2  0  0  0  0
  4  6  1  0  0  0  0
  6  7  1  0  0  0  0
  6 16  2  0  0  0  0
  7  8  1  0  0  0  0
  8  9  1  0  0  0  0
  8 14  2  0  0  0  0
  9 10  2  0  0  0  0
  9 32  1  0  0  0  0
 10 11  1  0  0  0  0
 10 33  1  0  0  0  0
 11 12  1  0  0  0  0
 11 13  2  0  0  0  0
 13 14  1  0  0  0  0
 13 34  1  0  0  0  0
 14 15  1  0  0  0  0
 15 35  1  0  0  0  0
 15 36  1  0  0  0  0
 15 37  1  0  0  0  0
 16 17  1  0  0  0  0
 16 18  1  0  0  0  0
 18 19  1  0  0  0  0
 18 23  2  0  0  0  0
 19 20  2  0  0  0  0
 19 38  1  0  0  0  0
 20 21  1  0  0  0  0
 20 39  1  0  0  0  0
 21 22  2  0  0  0  0
 21 24  1  0  0  0  0
 22 23  1  0  0  0  0
 22 40  1  0  0  0  0
 23 41  1  0  0  0  0
 24 25  1  0  0  0  0
 24 26  2  0  0  0  0
 24 27  2  0  0  0  0
 25 42  1  0  0  0  0
 25 43  1  0  0  0  0
 25 44  1  0  0  0  0
M  END
$$$$
