
 OpenBabel07142516373D

 35 37  0  0  0  0  0  0  0  0999 V2000
    1.4855   -0.2091    0.1780 C   0  0  0  0  0  0  0  0  0  0  0  0
    3.2608   -0.2021    0.0963 S   0  0  0  0  0  0  0  0  0  0  0  0
    3.7589    0.6200    1.1860 O   0  0  0  0  0  0  0  0  0  0  0  0
    3.7105   -1.5700   -0.0734 O   0  0  0  0  0  0  0  0  0  0  0  0
    3.6001    0.6657   -1.4114 C   0  0  0  0  0  0  0  0  0  0  0  0
    3.7832    2.0534   -1.4104 C   0  0  0  0  0  0  0  0  0  0  0  0
    4.0737    2.7167   -2.6042 C   0  0  0  0  0  0  0  0  0  0  0  0
    4.2334    1.9985   -3.8024 C   0  0  0  0  0  0  0  0  0  0  0  0
    4.1151    0.5983   -3.7568 C   0  0  0  0  0  0  0  0  0  0  0  0
    3.7442   -0.0619   -2.5883 C   0  0  0  0  0  0  0  0  0  0  0  0
    4.4897    2.6998   -5.0684 C   0  0  0  0  0  0  0  0  0  0  0  0
    5.3264    3.8715   -5.1908 C   0  0  0  0  0  0  0  0  0  0  0  0
    5.4064    4.3176   -6.4800 C   0  0  0  0  0  0  0  0  0  0  0  0
    6.4026    5.8160   -6.9992 Br  0  0  0  0  0  0  0  0  0  0  0  0
    4.5142    3.3866   -7.5603 S   0  0  0  0  0  0  0  0  0  0  0  0
    3.9349    2.3379   -6.3059 C   0  0  0  0  0  0  0  0  0  0  0  0
    2.9633    1.2732   -6.6833 C   0  0  0  0  0  0  0  0  0  0  0  0
    3.0166    0.6099   -7.9161 C   0  0  0  0  0  0  0  0  0  0  0  0
    2.1425   -0.4328   -8.2158 C   0  0  0  0  0  0  0  0  0  0  0  0
    1.2295   -0.8634   -7.2601 C   0  0  0  0  0  0  0  0  0  0  0  0
    0.4174   -1.8929   -7.5325 F   0  0  0  0  0  0  0  0  0  0  0  0
    1.1457   -0.2399   -6.0316 C   0  0  0  0  0  0  0  0  0  0  0  0
    1.9693    0.8567   -5.7722 C   0  0  0  0  0  0  0  0  0  0  0  0
    1.1997   -0.7273    1.0967 H   0  0  0  0  0  0  0  0  0  0  0  0
    1.0910   -0.7461   -0.6878 H   0  0  0  0  0  0  0  0  0  0  0  0
    1.1241    0.8184    0.2001 H   0  0  0  0  0  0  0  0  0  0  0  0
    3.7054    2.6241   -0.4834 H   0  0  0  0  0  0  0  0  0  0  0  0
    4.1693    3.8010   -2.5936 H   0  0  0  0  0  0  0  0  0  0  0  0
    4.2456   -0.0017   -4.6557 H   0  0  0  0  0  0  0  0  0  0  0  0
    3.5858   -1.1383   -2.6113 H   0  0  0  0  0  0  0  0  0  0  0  0
    5.8417    4.3444   -4.3632 H   0  0  0  0  0  0  0  0  0  0  0  0
    3.7533    0.8915   -8.6790 H   0  0  0  0  0  0  0  0  0  0  0  0
    2.1731   -0.9264   -9.1800 H   0  0  0  0  0  0  0  0  0  0  0  0
    0.4573   -0.6034   -5.2767 H   0  0  0  0  0  0  0  0  0  0  0  0
    1.8589    1.3432   -4.8077 H   0  0  0  0  0  0  0  0  0  0  0  0
  1  2  1  0  0  0  0
  1 24  1  0  0  0  0
  1 25  1  0  0  0  0
  1 26  1  0  0  0  0
  2  3  2  0  0  0  0
  2  4  2  0  0  0  0
  2  5  1  0  0  0  0
  5  6  1  0  0  0  0
  5 10  2  0  0  0  0
  6  7  2  0  0  0  0
  6 27  1  0  0  0  0
  7  8  1  0  0  0  0
  7 28  1  0  0  0  0
  8  9  2  0  0  0  0
  8 11  1  0  0  0  0
  9 10  1  0  0  0  0
  9 29  1  0  0  0  0
 10 30  1  0  0  0  0
 11 12  1  0  0  0  0
 11 16  2  0  0  0  0
 12 13  2  0  0  0  0
 12 31  1  0  0  0  0
 13 14  1  0  0  0  0
 13 15  1  0  0  0  0
 15 16  1  0  0  0  0
 16 17  1  0  0  0  0
 17 18  1  0  0  0  0
 17 23  2  0  0  0  0
 18 19  2  0  0  0  0
 18 32  1  0  0  0  0
 19 20  1  0  0  0  0
 19 33  1  0  0  0  0
 20 21  1  0  0  0  0
 20 22  2  0  0  0  0
 22 23  1  0  0  0  0
 22 34  1  0  0  0  0
 23 35  1  0  0  0  0
M  END
$$$$
