
 OpenBabel07142516183D

 41 43  0  0  0  0  0  0  0  0999 V2000
    1.6721    0.9210   -1.2707 C   0  0  0  0  0  0  0  0  0  0  0  0
    2.0088    0.3177   -0.0244 O   0  0  0  0  0  0  0  0  0  0  0  0
    2.8771    1.0274    0.7570 C   0  0  0  0  0  0  0  0  0  0  0  0
    2.7659    0.8211    2.1318 C   0  0  0  0  0  0  0  0  0  0  0  0
    3.5690    1.5367    3.0305 C   0  0  0  0  0  0  0  0  0  0  0  0
    4.5286    2.4458    2.5624 C   0  0  0  0  0  0  0  0  0  0  0  0
    4.7116    2.5391    1.1776 C   0  0  0  0  0  0  0  0  0  0  0  0
    3.8667    1.8779    0.2794 C   0  0  0  0  0  0  0  0  0  0  0  0
    5.3233    3.2526    3.5111 C   0  0  0  0  0  0  0  0  0  0  0  0
    5.7657    2.9090    4.7788 C   0  0  0  0  0  0  0  0  0  0  0  0
    6.6458    3.9361    5.1951 C   0  0  0  0  0  0  0  0  0  0  0  0
    6.7668    4.8683    4.2352 N   0  0  0  0  0  0  0  0  0  0  0  0
    5.8530    4.5298    3.2878 N   0  0  0  0  0  0  0  0  0  0  0  0
    5.5971    5.4428    2.2245 C   0  0  0  0  0  0  0  0  0  0  0  0
    6.6491    6.2375    1.7451 C   0  0  0  0  0  0  0  0  0  0  0  0
    6.4737    6.9979    0.5867 C   0  0  0  0  0  0  0  0  0  0  0  0
    5.2400    6.9788   -0.0707 C   0  0  0  0  0  0  0  0  0  0  0  0
    4.1605    6.2669    0.4546 C   0  0  0  0  0  0  0  0  0  0  0  0
    4.3359    5.5087    1.6134 C   0  0  0  0  0  0  0  0  0  0  0  0
    5.0336    7.8912   -1.5702 S   0  0  0  0  0  0  0  0  0  0  0  0
    5.5174    6.7678   -2.7254 N   0  0  0  0  0  0  0  0  0  0  0  0
    3.6283    8.1151   -1.8048 O   0  0  0  0  0  0  0  0  0  0  0  0
    6.0104    8.9543   -1.6211 O   0  0  0  0  0  0  0  0  0  0  0  0
    7.4001    4.0077    6.4966 C   0  0  0  0  0  0  0  0  0  0  0  0
    7.1403    2.9303    7.2894 F   0  0  0  0  0  0  0  0  0  0  0  0
    8.7473    4.0373    6.3203 F   0  0  0  0  0  0  0  0  0  0  0  0
    7.0684    5.1059    7.2268 F   0  0  0  0  0  0  0  0  0  0  0  0
    0.8995    0.3057   -1.7414 H   0  0  0  0  0  0  0  0  0  0  0  0
    2.5277    0.9471   -1.9524 H   0  0  0  0  0  0  0  0  0  0  0  0
    1.2583    1.9249   -1.1217 H   0  0  0  0  0  0  0  0  0  0  0  0
    2.0298    0.1163    2.5108 H   0  0  0  0  0  0  0  0  0  0  0  0
    3.4202    1.3769    4.0951 H   0  0  0  0  0  0  0  0  0  0  0  0
    5.5009    3.1588    0.7564 H   0  0  0  0  0  0  0  0  0  0  0  0
    4.0204    2.0414   -0.7818 H   0  0  0  0  0  0  0  0  0  0  0  0
    5.5369    1.9997    5.3195 H   0  0  0  0  0  0  0  0  0  0  0  0
    7.6267    6.2200    2.2253 H   0  0  0  0  0  0  0  0  0  0  0  0
    7.3078    7.5738    0.1909 H   0  0  0  0  0  0  0  0  0  0  0  0
    3.1912    6.2763   -0.0394 H   0  0  0  0  0  0  0  0  0  0  0  0
    3.4836    4.9619    2.0114 H   0  0  0  0  0  0  0  0  0  0  0  0
    4.7379    6.5633   -3.3515 H   0  0  0  0  0  0  0  0  0  0  0  0
    6.3499    7.1088   -3.2087 H   0  0  0  0  0  0  0  0  0  0  0  0
  1  2  1  0  0  0  0
  1 28  1  0  0  0  0
  1 29  1  0  0  0  0
  1 30  1  0  0  0  0
  2  3  1  0  0  0  0
  3  4  1  0  0  0  0
  3  8  2  0  0  0  0
  4  5  2  0  0  0  0
  4 31  1  0  0  0  0
  5  6  1  0  0  0  0
  5 32  1  0  0  0  0
  6  7  2  0  0  0  0
  6  9  1  0  0  0  0
  7  8  1  0  0  0  0
  7 33  1  0  0  0  0
  8 34  1  0  0  0  0
  9 10  2  0  0  0  0
  9 13  1  0  0  0  0
 10 11  1  0  0  0  0
 10 35  1  0  0  0  0
 11 12  2  0  0  0  0
 11 24  1  0  0  0  0
 12 13  1  0  0  0  0
 13 14  1  0  0  0  0
 14 15  1  0  0  0  0
 14 19  2  0  0  0  0
 15 16  2  0  0  0  0
 15 36  1  0  0  0  0
 16 17  1  0  0  0  0
 16 37  1  0  0  0  0
 17 18  2  0  0  0  0
 17 20  1  0  0  0  0
 18 19  1  0  0  0  0
 18 38  1  0  0  0  0
 19 39  1  0  0  0  0
 20 21  1  0  0  0  0
 20 22  2  0  0  0  0
 20 23  2  0  0  0  0
 21 40  1  0  0  0  0
 21 41  1  0  0  0  0
 24 25  1  0  0  0  0
 24 26  1  0  0  0  0
 24 27  1  0  0  0  0
M  END
$$$$
