
 OpenBabel07142517433D

 36 38  0  0  0  0  0  0  0  0999 V2000
    3.3940    0.5644   -0.6215 N   0  0  0  0  0  0  0  0  0  0  0  0
    2.0889   -0.0982    0.1982 S   0  0  0  0  0  0  0  0  0  0  0  0
    1.0661    0.9143    0.2215 O   0  0  0  0  0  0  0  0  0  0  0  0
    1.8800   -1.4033   -0.3899 O   0  0  0  0  0  0  0  0  0  0  0  0
    2.7465   -0.2964    1.8315 C   0  0  0  0  0  0  0  0  0  0  0  0
    2.6974    0.7550    2.7432 C   0  0  0  0  0  0  0  0  0  0  0  0
    3.2584    0.5848    4.0163 C   0  0  0  0  0  0  0  0  0  0  0  0
    3.8380   -0.6404    4.4108 C   0  0  0  0  0  0  0  0  0  0  0  0
    3.7828   -1.7035    3.4895 C   0  0  0  0  0  0  0  0  0  0  0  0
    3.2798   -1.5274    2.1990 C   0  0  0  0  0  0  0  0  0  0  0  0
    4.4814   -0.8006    5.7430 C   0  0  0  0  0  0  0  0  0  0  0  0
    3.8100   -0.2906    6.8766 C   0  0  0  0  0  0  0  0  0  0  0  0
    4.3223   -0.4684    8.1551 C   0  0  0  0  0  0  0  0  0  0  0  0
    3.4986    0.1566    9.5239 Cl  0  0  0  0  0  0  0  0  0  0  0  0
    5.5011   -1.1683    8.2916 C   0  0  0  0  0  0  0  0  0  0  0  0
    6.2025   -1.6591    7.2448 N   0  0  0  0  0  0  0  0  0  0  0  0
    5.7164   -1.4640    5.9813 C   0  0  0  0  0  0  0  0  0  0  0  0
    6.6054   -2.0451    4.9358 C   0  0  0  0  0  0  0  0  0  0  0  0
    7.2463   -3.2840    5.1544 C   0  0  0  0  0  0  0  0  0  0  0  0
    7.9918   -3.9100    4.1500 C   0  0  0  0  0  0  0  0  0  0  0  0
    8.0997   -3.3078    2.9058 C   0  0  0  0  0  0  0  0  0  0  0  0
    8.7589   -3.9312    1.9210 F   0  0  0  0  0  0  0  0  0  0  0  0
    7.5318   -2.0649    2.6693 C   0  0  0  0  0  0  0  0  0  0  0  0
    6.8273   -1.4216    3.6920 C   0  0  0  0  0  0  0  0  0  0  0  0
    3.0903    1.4039   -1.1142 H   0  0  0  0  0  0  0  0  0  0  0  0
    3.8157   -0.1367   -1.2366 H   0  0  0  0  0  0  0  0  0  0  0  0
    2.2455    1.7080    2.4742 H   0  0  0  0  0  0  0  0  0  0  0  0
    3.2458    1.4341    4.6980 H   0  0  0  0  0  0  0  0  0  0  0  0
    4.1766   -2.6846    3.7520 H   0  0  0  0  0  0  0  0  0  0  0  0
    3.3205   -2.3542    1.4943 H   0  0  0  0  0  0  0  0  0  0  0  0
    2.8619    0.2315    6.7634 H   0  0  0  0  0  0  0  0  0  0  0  0
    5.9333   -1.3653    9.2682 H   0  0  0  0  0  0  0  0  0  0  0  0
    7.1512   -3.7806    6.1200 H   0  0  0  0  0  0  0  0  0  0  0  0
    8.4708   -4.8670    4.3297 H   0  0  0  0  0  0  0  0  0  0  0  0
    7.6261   -1.6062    1.6907 H   0  0  0  0  0  0  0  0  0  0  0  0
    6.4105   -0.4380    3.4852 H   0  0  0  0  0  0  0  0  0  0  0  0
  1  2  1  0  0  0  0
  1 25  1  0  0  0  0
  1 26  1  0  0  0  0
  2  3  2  0  0  0  0
  2  4  2  0  0  0  0
  2  5  1  0  0  0  0
  5  6  1  0  0  0  0
  5 10  2  0  0  0  0
  6  7  2  0  0  0  0
  6 27  1  0  0  0  0
  7  8  1  0  0  0  0
  7 28  1  0  0  0  0
  8  9  2  0  0  0  0
  8 11  1  0  0  0  0
  9 10  1  0  0  0  0
  9 29  1  0  0  0  0
 10 30  1  0  0  0  0
 11 12  1  0  0  0  0
 11 17  2  0  0  0  0
 12 13  2  0  0  0  0
 12 31  1  0  0  0  0
 13 14  1  0  0  0  0
 13 15  1  0  0  0  0
 15 16  2  0  0  0  0
 15 32  1  0  0  0  0
 16 17  1  0  0  0  0
 17 18  1  0  0  0  0
 18 19  1  0  0  0  0
 18 24  2  0  0  0  0
 19 20  2  0  0  0  0
 19 33  1  0  0  0  0
 20 21  1  0  0  0  0
 20 34  1  0  0  0  0
 21 22  1  0  0  0  0
 21 23  2  0  0  0  0
 23 24  1  0  0  0  0
 23 35  1  0  0  0  0
 24 36  1  0  0  0  0
M  END
$$$$
