
 OpenBabel07142517193D

 57 59  0  0  1  0  0  0  0  0999 V2000
    0.8956    0.1604   -0.0211 C   0  0  0  0  0  0  0  0  0  0  0  0
    2.4278    0.0587   -0.0297 C   0  0  0  0  0  0  0  0  0  0  0  0
    2.9812    0.0655   -1.4588 C   0  0  0  0  0  0  0  0  0  0  0  0
    2.9134    1.2537    0.6083 O   0  0  0  0  0  0  0  0  0  0  0  0
    2.8971   -1.1584    0.7544 C   0  0  0  0  0  0  0  0  0  0  0  0
    3.7455   -1.0368    1.8769 C   0  0  0  0  0  0  0  0  0  0  0  0
    4.1088   -2.1508    2.6663 C   0  0  0  0  0  0  0  0  0  0  0  0
    3.6583   -3.4179    2.3177 C   0  0  0  0  0  0  0  0  0  0  0  0
    2.8731   -3.5477    1.1846 C   0  0  0  0  0  0  0  0  0  0  0  0
    2.5027   -2.4503    0.4259 C   0  0  0  0  0  0  0  0  0  0  0  0
    1.7294   -2.7793   -0.6548 O   0  0  0  0  0  0  0  0  0  0  0  0
    1.5657   -4.2172   -0.6065 C   0  0  0  0  0  0  0  0  0  0  0  0
    2.3267   -4.8000    0.6016 C   0  0  0  0  0  0  0  0  0  0  0  0
    3.4692   -5.7208    0.1636 C   0  0  0  0  0  0  0  0  0  0  0  0
    1.3832   -5.4846    1.5933 C   0  0  0  0  0  0  0  0  0  0  0  0
    4.9952   -2.0487    3.8583 C   0  0  0  0  0  0  0  0  0  0  0  0
    5.6742   -3.0099    4.2094 O   0  0  0  0  0  0  0  0  0  0  0  0
    5.0460   -0.8183    4.6590 C   0  0  0  0  0  0  0  0  0  0  0  0
    6.2173   -0.4667    5.3306 C   0  0  0  0  0  0  0  0  0  0  0  0
    6.1939    0.5828    6.1860 C   0  0  0  0  0  0  0  0  0  0  0  0
    5.0498    1.3335    6.4322 C   0  0  0  0  0  0  0  0  0  0  0  0
    5.0535    2.3294    7.3737 O   0  0  0  0  0  0  0  0  0  0  0  0
    6.3294    2.4717    8.0408 C   0  0  0  0  0  0  0  0  0  0  0  0
    6.2819    3.5901    9.0725 C   0  0  1  0  0  0  0  0  0  0  0  0
    7.5466    3.7277    9.7313 O   0  0  0  0  0  0  0  0  0  0  0  0
    5.8798    4.8942    8.3781 C   0  0  0  0  0  0  0  0  0  0  0  0
    5.7976    5.9791    9.2915 O   0  0  0  0  0  0  0  0  0  0  0  0
    3.8678    1.0355    5.7044 C   0  0  0  0  0  0  0  0  0  0  0  0
    3.8806   -0.0540    4.8394 C   0  0  0  0  0  0  0  0  0  0  0  0
    0.5601    1.0863   -0.5030 H   0  0  0  0  0  0  0  0  0  0  0  0
    0.5170    0.1926    1.0080 H   0  0  0  0  0  0  0  0  0  0  0  0
    0.4089   -0.6742   -0.5328 H   0  0  0  0  0  0  0  0  0  0  0  0
    2.6613    0.9668   -1.9948 H   0  0  0  0  0  0  0  0  0  0  0  0
    2.6614   -0.8028   -2.0422 H   0  0  0  0  0  0  0  0  0  0  0  0
    4.0777    0.0849   -1.4501 H   0  0  0  0  0  0  0  0  0  0  0  0
    2.5811    2.0114    0.0976 H   0  0  0  0  0  0  0  0  0  0  0  0
    4.1231   -0.0493    2.1312 H   0  0  0  0  0  0  0  0  0  0  0  0
    3.9339   -4.2889    2.9073 H   0  0  0  0  0  0  0  0  0  0  0  0
    1.9277   -4.6234   -1.5588 H   0  0  0  0  0  0  0  0  0  0  0  0
    0.4899   -4.4236   -0.5576 H   0  0  0  0  0  0  0  0  0  0  0  0
    4.1099   -5.2296   -0.5795 H   0  0  0  0  0  0  0  0  0  0  0  0
    3.0882   -6.6455   -0.2806 H   0  0  0  0  0  0  0  0  0  0  0  0
    4.1146   -5.9922    1.0083 H   0  0  0  0  0  0  0  0  0  0  0  0
    0.5511   -4.8235    1.8680 H   0  0  0  0  0  0  0  0  0  0  0  0
    1.8990   -5.7471    2.5245 H   0  0  0  0  0  0  0  0  0  0  0  0
    0.9593   -6.4008    1.1718 H   0  0  0  0  0  0  0  0  0  0  0  0
    7.1298   -1.0319    5.1862 H   0  0  0  0  0  0  0  0  0  0  0  0
    7.1238    0.8032    6.7160 H   0  0  0  0  0  0  0  0  0  0  0  0
    7.1217    2.7245    7.3170 H   0  0  0  0  0  0  0  0  0  0  0  0
    6.6094    1.5380    8.5575 H   0  0  0  0  0  0  0  0  0  0  0  0
    5.5542    3.3309    9.8459 H   0  0  0  0  0  0  0  0  0  0  0  0
    8.2177    3.9602    9.0658 H   0  0  0  0  0  0  0  0  0  0  0  0
    4.9066    4.7884    7.8827 H   0  0  0  0  0  0  0  0  0  0  0  0
    6.6220    5.1652    7.6207 H   0  0  0  0  0  0  0  0  0  0  0  0
    5.3741    5.6502   10.1037 H   0  0  0  0  0  0  0  0  0  0  0  0
    2.9574    1.5979    5.8113 H   0  0  0  0  0  0  0  0  0  0  0  0
    2.9676   -0.3207    4.3004 H   0  0  0  0  0  0  0  0  0  0  0  0
  1  2  1  0  0  0  0
  1 30  1  0  0  0  0
  1 31  1  0  0  0  0
  1 32  1  0  0  0  0
  2  3  1  0  0  0  0
  2  4  1  0  0  0  0
  2  5  1  0  0  0  0
  3 33  1  0  0  0  0
  3 34  1  0  0  0  0
  3 35  1  0  0  0  0
  4 36  1  0  0  0  0
  5  6  1  0  0  0  0
  5 10  2  0  0  0  0
  6  7  2  0  0  0  0
  6 37  1  0  0  0  0
  7  8  1  0  0  0  0
  7 16  1  0  0  0  0
  8  9  2  0  0  0  0
  8 38  1  0  0  0  0
  9 10  1  0  0  0  0
  9 13  1  0  0  0  0
 10 11  1  0  0  0  0
 11 12  1  0  0  0  0
 12 13  1  0  0  0  0
 12 39  1  0  0  0  0
 12 40  1  0  0  0  0
 13 14  1  0  0  0  0
 13 15  1  0  0  0  0
 14 41  1  0  0  0  0
 14 42  1  0  0  0  0
 14 43  1  0  0  0  0
 15 44  1  0  0  0  0
 15 45  1  0  0  0  0
 15 46  1  0  0  0  0
 16 17  2  0  0  0  0
 16 18  1  0  0  0  0
 18 19  1  0  0  0  0
 18 29  2  0  0  0  0
 19 20  2  0  0  0  0
 19 47  1  0  0  0  0
 20 21  1  0  0  0  0
 20 48  1  0  0  0  0
 21 22  1  0  0  0  0
 21 28  2  0  0  0  0
 22 23  1  0  0  0  0
 23 24  1  0  0  0  0
 23 49  1  0  0  0  0
 23 50  1  0  0  0  0
 24 25  1  0  0  0  0
 24 26  1  0  0  0  0
 24 51  1  1  0  0  0
 25 52  1  0  0  0  0
 26 27  1  0  0  0  0
 26 53  1  0  0  0  0
 26 54  1  0  0  0  0
 27 55  1  0  0  0  0
 28 29  1  0  0  0  0
 28 56  1  0  0  0  0
 29 57  1  0  0  0  0
M  END
$$$$
