
 OpenBabel07142517353D

 37 39  0  0  0  0  0  0  0  0999 V2000
    2.3919   -0.6362    0.7130 C   0  0  0  0  0  0  0  0  0  0  0  0
    0.9106   -0.5062    0.5192 C   0  0  0  0  0  0  0  0  0  0  0  0
    0.0541   -0.2755    1.6005 C   0  0  0  0  0  0  0  0  0  0  0  0
   -1.3309   -0.2103    1.4076 C   0  0  0  0  0  0  0  0  0  0  0  0
   -1.8828   -0.3693    0.1304 C   0  0  0  0  0  0  0  0  0  0  0  0
   -1.0160   -0.5733   -0.9525 C   0  0  0  0  0  0  0  0  0  0  0  0
    0.3659   -0.6421   -0.7609 C   0  0  0  0  0  0  0  0  0  0  0  0
   -3.3277   -0.2668   -0.0756 C   0  0  0  0  0  0  0  0  0  0  0  0
   -3.9115    0.3416   -1.1046 C   0  0  0  0  0  0  0  0  0  0  0  0
   -5.2921    0.4098   -0.7669 C   0  0  0  0  0  0  0  0  0  0  0  0
   -6.2716    1.1540   -1.3040 C   0  0  0  0  0  0  0  0  0  0  0  0
   -6.0870    2.1691   -2.3559 C   0  0  0  0  0  0  0  0  0  0  0  0
   -7.0845    2.3926   -3.3087 C   0  0  0  0  0  0  0  0  0  0  0  0
   -6.9139    3.3624   -4.3068 C   0  0  0  0  0  0  0  0  0  0  0  0
   -5.7383    4.1253   -4.3725 C   0  0  0  0  0  0  0  0  0  0  0  0
   -4.7578    3.9345   -3.3956 C   0  0  0  0  0  0  0  0  0  0  0  0
   -4.9503    2.9966   -2.3821 C   0  0  0  0  0  0  0  0  0  0  0  0
   -5.4997    5.1367   -5.4664 C   0  0  0  0  0  0  0  0  0  0  0  0
   -6.5692    5.3202   -6.2824 F   0  0  0  0  0  0  0  0  0  0  0  0
   -5.1864    6.3686   -4.9758 F   0  0  0  0  0  0  0  0  0  0  0  0
   -4.4615    4.7848   -6.2752 F   0  0  0  0  0  0  0  0  0  0  0  0
   -5.4651   -0.4139    0.4636 C   0  0  0  0  0  0  0  0  0  0  0  0
   -6.5179   -0.7059    1.0015 O   0  0  0  0  0  0  0  0  0  0  0  0
   -4.1996   -0.7419    0.9211 O   0  0  0  0  0  0  0  0  0  0  0  0
    2.6751   -0.4975    1.7611 H   0  0  0  0  0  0  0  0  0  0  0  0
    2.9221    0.1129    0.1164 H   0  0  0  0  0  0  0  0  0  0  0  0
    2.7181   -1.6358    0.4067 H   0  0  0  0  0  0  0  0  0  0  0  0
    0.4554   -0.1481    2.6037 H   0  0  0  0  0  0  0  0  0  0  0  0
   -1.9719   -0.0181    2.2659 H   0  0  0  0  0  0  0  0  0  0  0  0
   -1.4041   -0.6900   -1.9617 H   0  0  0  0  0  0  0  0  0  0  0  0
    1.0142   -0.8115   -1.6179 H   0  0  0  0  0  0  0  0  0  0  0  0
   -3.4280    0.7798   -1.9621 H   0  0  0  0  0  0  0  0  0  0  0  0
   -7.2813    1.0725   -0.9032 H   0  0  0  0  0  0  0  0  0  0  0  0
   -8.0068    1.8143   -3.2881 H   0  0  0  0  0  0  0  0  0  0  0  0
   -7.7070    3.5176   -5.0374 H   0  0  0  0  0  0  0  0  0  0  0  0
   -3.8404    4.5189   -3.4101 H   0  0  0  0  0  0  0  0  0  0  0  0
   -4.1854    2.9226   -1.6129 H   0  0  0  0  0  0  0  0  0  0  0  0
  1  2  1  0  0  0  0
  1 25  1  0  0  0  0
  1 26  1  0  0  0  0
  1 27  1  0  0  0  0
  2  3  1  0  0  0  0
  2  7  2  0  0  0  0
  3  4  2  0  0  0  0
  3 28  1  0  0  0  0
  4  5  1  0  0  0  0
  4 29  1  0  0  0  0
  5  6  2  0  0  0  0
  5  8  1  0  0  0  0
  6  7  1  0  0  0  0
  6 30  1  0  0  0  0
  7 31  1  0  0  0  0
  8  9  2  0  0  0  0
  8 24  1  0  0  0  0
  9 10  1  0  0  0  0
  9 32  1  0  0  0  0
 10 11  2  0  0  0  0
 10 22  1  0  0  0  0
 11 12  1  0  0  0  0
 11 33  1  0  0  0  0
 12 13  1  0  0  0  0
 12 17  2  0  0  0  0
 13 14  2  0  0  0  0
 13 34  1  0  0  0  0
 14 15  1  0  0  0  0
 14 35  1  0  0  0  0
 15 16  2  0  0  0  0
 15 18  1  0  0  0  0
 16 17  1  0  0  0  0
 16 36  1  0  0  0  0
 17 37  1  0  0  0  0
 18 19  1  0  0  0  0
 18 20  1  0  0  0  0
 18 21  1  0  0  0  0
 22 23  2  0  0  0  0
 22 24  1  0  0  0  0
M  END
$$$$
