
 OpenBabel07142516223D

 53 55  0  0  0  0  0  0  0  0999 V2000
    0.8803    0.1514   -0.0191 C   0  0  0  0  0  0  0  0  0  0  0  0
    2.3759    0.0777   -0.0784 C   0  0  0  0  0  0  0  0  0  0  0  0
    3.2570    1.1486   -0.0854 C   0  0  0  0  0  0  0  0  0  0  0  0
    2.9159    2.6125   -0.0853 C   0  0  0  0  0  0  0  0  0  0  0  0
    2.6726    3.2102    1.2968 C   0  0  0  0  0  0  0  0  0  0  0  0
    1.8655    4.1238    1.4661 O   0  0  0  0  0  0  0  0  0  0  0  0
    3.4697    2.7436    2.3200 N   0  0  0  0  0  0  0  0  0  0  0  0
    3.4056    3.2993    3.6633 C   0  0  0  0  0  0  0  0  0  0  0  0
    2.3277    2.6314    4.5153 C   0  0  0  0  0  0  0  0  0  0  0  0
    2.6430    1.2530    4.7070 O   0  0  0  0  0  0  0  0  0  0  0  0
    4.5604    0.6006   -0.0970 C   0  0  0  0  0  0  0  0  0  0  0  0
    4.4834   -0.7852   -0.0608 C   0  0  0  0  0  0  0  0  0  0  0  0
    5.6323   -1.7208   -0.1089 C   0  0  0  0  0  0  0  0  0  0  0  0
    6.8357   -1.3914    0.5427 C   0  0  0  0  0  0  0  0  0  0  0  0
    7.9061   -2.2919    0.5748 C   0  0  0  0  0  0  0  0  0  0  0  0
    7.7731   -3.5452   -0.0192 C   0  0  0  0  0  0  0  0  0  0  0  0
    6.6099   -3.8745   -0.7116 C   0  0  0  0  0  0  0  0  0  0  0  0
    5.5727   -2.9443   -0.7938 C   0  0  0  0  0  0  0  0  0  0  0  0
    9.1083   -4.7179    0.0356 S   0  0  0  0  0  0  0  0  0  0  0  0
    8.8050   -5.6231    1.5304 C   0  0  0  0  0  0  0  0  0  0  0  0
    8.9415   -5.6252   -1.0812 O   0  0  0  0  0  0  0  0  0  0  0  0
   10.3412   -3.9653    0.2039 O   0  0  0  0  0  0  0  0  0  0  0  0
    3.1120   -1.1153   -0.0336 N   0  0  0  0  0  0  0  0  0  0  0  0
    2.5424   -2.4273    0.0828 C   0  0  0  0  0  0  0  0  0  0  0  0
    1.4167   -2.7868   -0.6747 C   0  0  0  0  0  0  0  0  0  0  0  0
    0.8696   -4.0697   -0.5754 C   0  0  0  0  0  0  0  0  0  0  0  0
    1.4755   -5.0205    0.2398 C   0  0  0  0  0  0  0  0  0  0  0  0
    2.6063   -4.6733    0.9675 C   0  0  0  0  0  0  0  0  0  0  0  0
    3.2217   -5.6024    1.7104 F   0  0  0  0  0  0  0  0  0  0  0  0
    3.1247   -3.3822    0.9249 C   0  0  0  0  0  0  0  0  0  0  0  0
    0.5377    1.1724    0.1741 H   0  0  0  0  0  0  0  0  0  0  0  0
    0.4846   -0.4743    0.7860 H   0  0  0  0  0  0  0  0  0  0  0  0
    0.4340   -0.1419   -0.9732 H   0  0  0  0  0  0  0  0  0  0  0  0
    2.0093    2.7722   -0.6812 H   0  0  0  0  0  0  0  0  0  0  0  0
    3.7172    3.1888   -0.5615 H   0  0  0  0  0  0  0  0  0  0  0  0
    4.0414    1.9222    2.1684 H   0  0  0  0  0  0  0  0  0  0  0  0
    3.2177    4.3760    3.5982 H   0  0  0  0  0  0  0  0  0  0  0  0
    4.3927    3.1396    4.1085 H   0  0  0  0  0  0  0  0  0  0  0  0
    1.3386    2.6994    4.0517 H   0  0  0  0  0  0  0  0  0  0  0  0
    2.2821    3.1038    5.5014 H   0  0  0  0  0  0  0  0  0  0  0  0
    2.6164    0.8437    3.8246 H   0  0  0  0  0  0  0  0  0  0  0  0
    5.4830    1.1699   -0.1381 H   0  0  0  0  0  0  0  0  0  0  0  0
    6.9569   -0.4325    1.0400 H   0  0  0  0  0  0  0  0  0  0  0  0
    8.8412   -2.0043    1.0590 H   0  0  0  0  0  0  0  0  0  0  0  0
    6.4943   -4.8470   -1.1874 H   0  0  0  0  0  0  0  0  0  0  0  0
    4.6931   -3.2155   -1.3729 H   0  0  0  0  0  0  0  0  0  0  0  0
    7.8319   -6.1135    1.4623 H   0  0  0  0  0  0  0  0  0  0  0  0
    8.8358   -4.9345    2.3765 H   0  0  0  0  0  0  0  0  0  0  0  0
    9.5911   -6.3746    1.6354 H   0  0  0  0  0  0  0  0  0  0  0  0
    0.9746   -2.1078   -1.3971 H   0  0  0  0  0  0  0  0  0  0  0  0
   -0.0138   -4.3294   -1.1542 H   0  0  0  0  0  0  0  0  0  0  0  0
    1.0819   -6.0300    0.3032 H   0  0  0  0  0  0  0  0  0  0  0  0
    3.9883   -3.1582    1.5422 H   0  0  0  0  0  0  0  0  0  0  0  0
  1  2  1  0  0  0  0
  1 31  1  0  0  0  0
  1 32  1  0  0  0  0
  1 33  1  0  0  0  0
  2  3  2  0  0  0  0
  2 23  1  0  0  0  0
  3  4  1  0  0  0  0
  3 11  1  0  0  0  0
  4  5  1  0  0  0  0
  4 34  1  0  0  0  0
  4 35  1  0  0  0  0
  5  6  2  0  0  0  0
  5  7  1  0  0  0  0
  7  8  1  0  0  0  0
  7 36  1  0  0  0  0
  8  9  1  0  0  0  0
  8 37  1  0  0  0  0
  8 38  1  0  0  0  0
  9 10  1  0  0  0  0
  9 39  1  0  0  0  0
  9 40  1  0  0  0  0
 10 41  1  0  0  0  0
 11 12  2  0  0  0  0
 11 42  1  0  0  0  0
 12 13  1  0  0  0  0
 12 23  1  0  0  0  0
 13 14  1  0  0  0  0
 13 18  2  0  0  0  0
 14 15  2  0  0  0  0
 14 43  1  0  0  0  0
 15 16  1  0  0  0  0
 15 44  1  0  0  0  0
 16 17  2  0  0  0  0
 16 19  1  0  0  0  0
 17 18  1  0  0  0  0
 17 45  1  0  0  0  0
 18 46  1  0  0  0  0
 19 20  1  0  0  0  0
 19 21  2  0  0  0  0
 19 22  2  0  0  0  0
 20 47  1  0  0  0  0
 20 48  1  0  0  0  0
 20 49  1  0  0  0  0
 23 24  1  0  0  0  0
 24 25  1  0  0  0  0
 24 30  2  0  0  0  0
 25 26  2  0  0  0  0
 25 50  1  0  0  0  0
 26 27  1  0  0  0  0
 26 51  1  0  0  0  0
 27 28  2  0  0  0  0
 27 52  1  0  0  0  0
 28 29  1  0  0  0  0
 28 30  1  0  0  0  0
 30 53  1  0  0  0  0
M  END
$$$$
