
 OpenBabel07142516023D

 34 36  0  0  0  0  0  0  0  0999 V2000
    3.3661    1.1136   -0.0630 N   0  0  0  0  0  0  0  0  0  0  0  0
    3.5209   -0.4308    0.5868 S   0  0  0  0  0  0  0  0  0  0  0  0
    4.7074   -0.4109    1.4092 O   0  0  0  0  0  0  0  0  0  0  0  0
    2.2169   -0.7495    1.1079 O   0  0  0  0  0  0  0  0  0  0  0  0
    3.8360   -1.4179   -0.8501 C   0  0  0  0  0  0  0  0  0  0  0  0
    4.9297   -1.1286   -1.6644 C   0  0  0  0  0  0  0  0  0  0  0  0
    5.1451   -1.8850   -2.8226 C   0  0  0  0  0  0  0  0  0  0  0  0
    4.2844   -2.9447   -3.1603 C   0  0  0  0  0  0  0  0  0  0  0  0
    3.2294   -3.2571   -2.2895 C   0  0  0  0  0  0  0  0  0  0  0  0
    2.9831   -2.4774   -1.1565 C   0  0  0  0  0  0  0  0  0  0  0  0
    4.5053   -3.6977   -4.4036 C   0  0  0  0  0  0  0  0  0  0  0  0
    5.8067   -4.1134   -4.8650 C   0  0  0  0  0  0  0  0  0  0  0  0
    5.7408   -4.8103   -6.0388 C   0  0  0  0  0  0  0  0  0  0  0  0
    7.2415   -5.5253   -6.9016 Br  0  0  0  0  0  0  0  0  0  0  0  0
    4.1742   -4.9580   -6.6345 S   0  0  0  0  0  0  0  0  0  0  0  0
    3.4952   -4.0910   -5.2940 C   0  0  0  0  0  0  0  0  0  0  0  0
    2.0249   -3.8787   -5.2805 C   0  0  0  0  0  0  0  0  0  0  0  0
    1.1296   -4.8905   -5.6800 C   0  0  0  0  0  0  0  0  0  0  0  0
   -0.2545   -4.7116   -5.5809 C   0  0  0  0  0  0  0  0  0  0  0  0
   -0.7565   -3.5293   -5.0570 C   0  0  0  0  0  0  0  0  0  0  0  0
   -2.0789   -3.3758   -4.9150 F   0  0  0  0  0  0  0  0  0  0  0  0
    0.0971   -2.5050   -4.6755 C   0  0  0  0  0  0  0  0  0  0  0  0
    1.4782   -2.6678   -4.8198 C   0  0  0  0  0  0  0  0  0  0  0  0
    4.0225    1.7397    0.4082 H   0  0  0  0  0  0  0  0  0  0  0  0
    2.3971    1.4194    0.0084 H   0  0  0  0  0  0  0  0  0  0  0  0
    5.6084   -0.3149   -1.4147 H   0  0  0  0  0  0  0  0  0  0  0  0
    5.9856   -1.6269   -3.4639 H   0  0  0  0  0  0  0  0  0  0  0  0
    2.5638   -4.0918   -2.4988 H   0  0  0  0  0  0  0  0  0  0  0  0
    2.1231   -2.7047   -0.5279 H   0  0  0  0  0  0  0  0  0  0  0  0
    6.7336   -3.9155   -4.3398 H   0  0  0  0  0  0  0  0  0  0  0  0
    1.4939   -5.8425   -6.0612 H   0  0  0  0  0  0  0  0  0  0  0  0
   -0.9389   -5.4942   -5.8932 H   0  0  0  0  0  0  0  0  0  0  0  0
   -0.3111   -1.5896   -4.2598 H   0  0  0  0  0  0  0  0  0  0  0  0
    2.1252   -1.8426   -4.5320 H   0  0  0  0  0  0  0  0  0  0  0  0
  1  2  1  0  0  0  0
  1 24  1  0  0  0  0
  1 25  1  0  0  0  0
  2  3  2  0  0  0  0
  2  4  2  0  0  0  0
  2  5  1  0  0  0  0
  5  6  1  0  0  0  0
  5 10  2  0  0  0  0
  6  7  2  0  0  0  0
  6 26  1  0  0  0  0
  7  8  1  0  0  0  0
  7 27  1  0  0  0  0
  8  9  2  0  0  0  0
  8 11  1  0  0  0  0
  9 10  1  0  0  0  0
  9 28  1  0  0  0  0
 10 29  1  0  0  0  0
 11 12  1  0  0  0  0
 11 16  2  0  0  0  0
 12 13  2  0  0  0  0
 12 30  1  0  0  0  0
 13 14  1  0  0  0  0
 13 15  1  0  0  0  0
 15 16  1  0  0  0  0
 16 17  1  0  0  0  0
 17 18  1  0  0  0  0
 17 23  2  0  0  0  0
 18 19  2  0  0  0  0
 18 31  1  0  0  0  0
 19 20  1  0  0  0  0
 19 32  1  0  0  0  0
 20 21  1  0  0  0  0
 20 22  2  0  0  0  0
 22 23  1  0  0  0  0
 22 33  1  0  0  0  0
 23 34  1  0  0  0  0
M  END
$$$$
