
 OpenBabel07142517043D

 37 39  0  0  0  0  0  0  0  0999 V2000
    1.8572    0.1629    0.5096 C   0  0  0  0  0  0  0  0  0  0  0  0
    3.6184    0.3119    0.4088 S   0  0  0  0  0  0  0  0  0  0  0  0
    4.0551    1.2511    1.4309 O   0  0  0  0  0  0  0  0  0  0  0  0
    4.1881   -1.0170    0.3391 O   0  0  0  0  0  0  0  0  0  0  0  0
    3.8886    1.0862   -1.1688 C   0  0  0  0  0  0  0  0  0  0  0  0
    3.8776    2.4761   -1.2703 C   0  0  0  0  0  0  0  0  0  0  0  0
    4.1069    3.0815   -2.5125 C   0  0  0  0  0  0  0  0  0  0  0  0
    4.3918    2.3204   -3.6654 C   0  0  0  0  0  0  0  0  0  0  0  0
    4.4609    0.9218   -3.5055 C   0  0  0  0  0  0  0  0  0  0  0  0
    4.1773    0.3032   -2.2825 C   0  0  0  0  0  0  0  0  0  0  0  0
    4.6239    2.9708   -4.9864 C   0  0  0  0  0  0  0  0  0  0  0  0
    5.4279    4.1332   -5.0352 C   0  0  0  0  0  0  0  0  0  0  0  0
    5.7478    4.7375   -6.2451 C   0  0  0  0  0  0  0  0  0  0  0  0
    6.7143    6.1544   -6.2895 Cl  0  0  0  0  0  0  0  0  0  0  0  0
    5.2744    4.1627   -7.4040 C   0  0  0  0  0  0  0  0  0  0  0  0
    4.4747    3.0729   -7.4212 N   0  0  0  0  0  0  0  0  0  0  0  0
    4.1279    2.4968   -6.2301 C   0  0  0  0  0  0  0  0  0  0  0  0
    3.2010    1.3444   -6.4049 C   0  0  0  0  0  0  0  0  0  0  0  0
    3.3770    0.4425   -7.4752 C   0  0  0  0  0  0  0  0  0  0  0  0
    2.5840   -0.7034   -7.6010 C   0  0  0  0  0  0  0  0  0  0  0  0
    1.6090   -0.9658   -6.6505 C   0  0  0  0  0  0  0  0  0  0  0  0
    0.8869   -2.0902   -6.7327 F   0  0  0  0  0  0  0  0  0  0  0  0
    1.3719   -0.0757   -5.6139 C   0  0  0  0  0  0  0  0  0  0  0  0
    2.1359    1.0912   -5.5188 C   0  0  0  0  0  0  0  0  0  0  0  0
    1.6089   -0.3036    1.4665 H   0  0  0  0  0  0  0  0  0  0  0  0
    1.5004   -0.4642   -0.3078 H   0  0  0  0  0  0  0  0  0  0  0  0
    1.4107    1.1612    0.4593 H   0  0  0  0  0  0  0  0  0  0  0  0
    3.7015    3.0974   -0.3941 H   0  0  0  0  0  0  0  0  0  0  0  0
    4.0656    4.1687   -2.5638 H   0  0  0  0  0  0  0  0  0  0  0  0
    4.7181    0.2819   -4.3496 H   0  0  0  0  0  0  0  0  0  0  0  0
    4.2005   -0.7835   -2.2179 H   0  0  0  0  0  0  0  0  0  0  0  0
    5.8302    4.5625   -4.1199 H   0  0  0  0  0  0  0  0  0  0  0  0
    5.5236    4.5679   -8.3806 H   0  0  0  0  0  0  0  0  0  0  0  0
    4.1522    0.6261   -8.2183 H   0  0  0  0  0  0  0  0  0  0  0  0
    2.7347   -1.3937   -8.4246 H   0  0  0  0  0  0  0  0  0  0  0  0
    0.6038   -0.2952   -4.8797 H   0  0  0  0  0  0  0  0  0  0  0  0
    1.9147    1.7837   -4.7099 H   0  0  0  0  0  0  0  0  0  0  0  0
  1  2  1  0  0  0  0
  1 25  1  0  0  0  0
  1 26  1  0  0  0  0
  1 27  1  0  0  0  0
  2  3  2  0  0  0  0
  2  4  2  0  0  0  0
  2  5  1  0  0  0  0
  5  6  1  0  0  0  0
  5 10  2  0  0  0  0
  6  7  2  0  0  0  0
  6 28  1  0  0  0  0
  7  8  1  0  0  0  0
  7 29  1  0  0  0  0
  8  9  2  0  0  0  0
  8 11  1  0  0  0  0
  9 10  1  0  0  0  0
  9 30  1  0  0  0  0
 10 31  1  0  0  0  0
 11 12  1  0  0  0  0
 11 17  2  0  0  0  0
 12 13  2  0  0  0  0
 12 32  1  0  0  0  0
 13 14  1  0  0  0  0
 13 15  1  0  0  0  0
 15 16  2  0  0  0  0
 15 33  1  0  0  0  0
 16 17  1  0  0  0  0
 17 18  1  0  0  0  0
 18 19  1  0  0  0  0
 18 24  2  0  0  0  0
 19 20  2  0  0  0  0
 19 34  1  0  0  0  0
 20 21  1  0  0  0  0
 20 35  1  0  0  0  0
 21 22  1  0  0  0  0
 21 23  2  0  0  0  0
 23 24  1  0  0  0  0
 23 36  1  0  0  0  0
 24 37  1  0  0  0  0
M  END
$$$$
