
 OpenBabel07142517313D

 38 41  0  0  0  0  0  0  0  0999 V2000
    4.8239    0.7299   -0.7498 C   0  0  0  0  0  0  0  0  0  0  0  0
    3.2884    0.0201   -0.2110 S   0  0  0  0  0  0  0  0  0  0  0  0
    2.2748    1.0527   -0.2233 O   0  0  0  0  0  0  0  0  0  0  0  0
    3.0938   -1.2309   -0.9175 O   0  0  0  0  0  0  0  0  0  0  0  0
    3.6332   -0.3740    1.4834 C   0  0  0  0  0  0  0  0  0  0  0  0
    3.4468    0.5991    2.4604 C   0  0  0  0  0  0  0  0  0  0  0  0
    3.7970    0.3118    3.7795 C   0  0  0  0  0  0  0  0  0  0  0  0
    4.2258   -0.9714    4.1625 C   0  0  0  0  0  0  0  0  0  0  0  0
    4.3498   -1.9467    3.1609 C   0  0  0  0  0  0  0  0  0  0  0  0
    4.0872   -1.6467    1.8222 C   0  0  0  0  0  0  0  0  0  0  0  0
    4.4841   -1.2846    5.5770 C   0  0  0  0  0  0  0  0  0  0  0  0
    3.8931   -0.8625    6.7841 C   0  0  0  0  0  0  0  0  0  0  0  0
    4.5398   -1.3831    7.8956 N   0  0  0  0  0  0  0  0  0  0  0  0
    5.4656   -2.1326    7.3784 C   0  0  0  0  0  0  0  0  0  0  0  0
    6.7088   -3.1585    8.0349 S   0  0  0  0  0  0  0  0  0  0  0  0
    7.2318   -3.5211    6.3885 C   0  0  0  0  0  0  0  0  0  0  0  0
    6.5027   -2.8851    5.4544 C   0  0  0  0  0  0  0  0  0  0  0  0
    5.5025   -2.1120    6.0198 N   0  0  0  0  0  0  0  0  0  0  0  0
    2.7712    0.0645    6.9282 C   0  0  0  0  0  0  0  0  0  0  0  0
    1.7114    0.0882    6.0057 C   0  0  0  0  0  0  0  0  0  0  0  0
    0.7660    1.1123    6.0303 C   0  0  0  0  0  0  0  0  0  0  0  0
    0.8165    2.0628    7.0408 C   0  0  0  0  0  0  0  0  0  0  0  0
   -0.0831    3.0532    7.0589 F   0  0  0  0  0  0  0  0  0  0  0  0
    1.7933    1.9991    8.0287 C   0  0  0  0  0  0  0  0  0  0  0  0
    2.7741    1.0038    7.9708 C   0  0  0  0  0  0  0  0  0  0  0  0
    4.7210    1.0049   -1.8015 H   0  0  0  0  0  0  0  0  0  0  0  0
    5.6154   -0.0114   -0.6333 H   0  0  0  0  0  0  0  0  0  0  0  0
    5.0322    1.6168   -0.1514 H   0  0  0  0  0  0  0  0  0  0  0  0
    3.0358    1.5754    2.2149 H   0  0  0  0  0  0  0  0  0  0  0  0
    3.6854    1.1055    4.5165 H   0  0  0  0  0  0  0  0  0  0  0  0
    4.6345   -2.9679    3.4020 H   0  0  0  0  0  0  0  0  0  0  0  0
    4.2219   -2.4137    1.0636 H   0  0  0  0  0  0  0  0  0  0  0  0
    8.0601   -4.1916    6.1870 H   0  0  0  0  0  0  0  0  0  0  0  0
    6.6477   -2.9465    4.3903 H   0  0  0  0  0  0  0  0  0  0  0  0
    1.6472   -0.6566    5.2163 H   0  0  0  0  0  0  0  0  0  0  0  0
    0.0072    1.1816    5.2590 H   0  0  0  0  0  0  0  0  0  0  0  0
    1.7984    2.7367    8.8240 H   0  0  0  0  0  0  0  0  0  0  0  0
    3.5550    0.9795    8.7287 H   0  0  0  0  0  0  0  0  0  0  0  0
  1  2  1  0  0  0  0
  1 26  1  0  0  0  0
  1 27  1  0  0  0  0
  1 28  1  0  0  0  0
  2  3  2  0  0  0  0
  2  4  2  0  0  0  0
  2  5  1  0  0  0  0
  5  6  1  0  0  0  0
  5 10  2  0  0  0  0
  6  7  2  0  0  0  0
  6 29  1  0  0  0  0
  7  8  1  0  0  0  0
  7 30  1  0  0  0  0
  8  9  2  0  0  0  0
  8 11  1  0  0  0  0
  9 10  1  0  0  0  0
  9 31  1  0  0  0  0
 10 32  1  0  0  0  0
 11 12  2  0  0  0  0
 11 18  1  0  0  0  0
 12 13  1  0  0  0  0
 12 19  1  0  0  0  0
 13 14  2  0  0  0  0
 14 15  1  0  0  0  0
 14 18  1  0  0  0  0
 15 16  1  0  0  0  0
 16 17  2  0  0  0  0
 16 33  1  0  0  0  0
 17 18  1  0  0  0  0
 17 34  1  0  0  0  0
 19 20  1  0  0  0  0
 19 25  2  0  0  0  0
 20 21  2  0  0  0  0
 20 35  1  0  0  0  0
 21 22  1  0  0  0  0
 21 36  1  0  0  0  0
 22 23  1  0  0  0  0
 22 24  2  0  0  0  0
 24 25  1  0  0  0  0
 24 37  1  0  0  0  0
 25 38  1  0  0  0  0
M  END
$$$$
