
 OpenBabel07142517163D

 43 46  0  0  0  0  0  0  0  0999 V2000
    2.3660    0.7889   -2.1576 C   0  0  0  0  0  0  0  0  0  0  0  0
    3.1663    0.2029   -0.6872 S   0  0  0  0  0  0  0  0  0  0  0  0
    2.1970   -0.5620    0.0796 O   0  0  0  0  0  0  0  0  0  0  0  0
    4.4376   -0.3799   -1.0701 O   0  0  0  0  0  0  0  0  0  0  0  0
    3.5163    1.6891    0.2193 C   0  0  0  0  0  0  0  0  0  0  0  0
    2.6277    2.1288    1.1986 C   0  0  0  0  0  0  0  0  0  0  0  0
    2.8948    3.3180    1.8831 C   0  0  0  0  0  0  0  0  0  0  0  0
    4.0125    4.1081    1.5589 C   0  0  0  0  0  0  0  0  0  0  0  0
    4.9285    3.6045    0.6180 C   0  0  0  0  0  0  0  0  0  0  0  0
    4.6927    2.3928   -0.0400 C   0  0  0  0  0  0  0  0  0  0  0  0
    4.1573    5.4685    2.1133 C   0  0  0  0  0  0  0  0  0  0  0  0
    5.7076    6.0019    2.6583 S   0  0  0  0  0  0  0  0  0  0  0  0
    5.0649    7.5372    3.0771 C   0  0  0  0  0  0  0  0  0  0  0  0
    3.7673    7.6523    2.8903 N   0  0  0  0  0  0  0  0  0  0  0  0
    3.2428    6.5076    2.2955 C   0  0  0  0  0  0  0  0  0  0  0  0
    1.8197    6.4932    1.9340 C   0  0  0  0  0  0  0  0  0  0  0  0
    1.3306    5.7911    0.8202 C   0  0  0  0  0  0  0  0  0  0  0  0
   -0.0388    5.7340    0.5504 C   0  0  0  0  0  0  0  0  0  0  0  0
   -0.9228    6.4442    1.3495 C   0  0  0  0  0  0  0  0  0  0  0  0
   -2.2334    6.4029    1.0794 F   0  0  0  0  0  0  0  0  0  0  0  0
   -0.4624    7.2046    2.4160 C   0  0  0  0  0  0  0  0  0  0  0  0
    0.9044    7.2225    2.7127 C   0  0  0  0  0  0  0  0  0  0  0  0
    5.9112    8.5956    3.6428 C   0  0  0  0  0  0  0  0  0  0  0  0
    5.3765    9.5137    4.5554 C   0  0  0  0  0  0  0  0  0  0  0  0
    6.1773   10.5226    5.0911 C   0  0  0  0  0  0  0  0  0  0  0  0
    7.4994   10.5945    4.6889 C   0  0  0  0  0  0  0  0  0  0  0  0
    8.0554    9.7448    3.8006 N   0  0  0  0  0  0  0  0  0  0  0  0
    7.2496    8.7734    3.2983 C   0  0  0  0  0  0  0  0  0  0  0  0
    2.1138   -0.0763   -2.7755 H   0  0  0  0  0  0  0  0  0  0  0  0
    3.0512    1.4422   -2.7024 H   0  0  0  0  0  0  0  0  0  0  0  0
    1.4558    1.3245   -1.8824 H   0  0  0  0  0  0  0  0  0  0  0  0
    1.7198    1.5727    1.4225 H   0  0  0  0  0  0  0  0  0  0  0  0
    2.1823    3.6527    2.6358 H   0  0  0  0  0  0  0  0  0  0  0  0
    5.8273    4.1628    0.3617 H   0  0  0  0  0  0  0  0  0  0  0  0
    5.4178    2.0253   -0.7643 H   0  0  0  0  0  0  0  0  0  0  0  0
    2.0038    5.2658    0.1489 H   0  0  0  0  0  0  0  0  0  0  0  0
   -0.4157    5.1459   -0.2800 H   0  0  0  0  0  0  0  0  0  0  0  0
   -1.1671    7.7756    3.0120 H   0  0  0  0  0  0  0  0  0  0  0  0
    1.2538    7.8133    3.5578 H   0  0  0  0  0  0  0  0  0  0  0  0
    4.3330    9.4429    4.8540 H   0  0  0  0  0  0  0  0  0  0  0  0
    5.7757   11.2346    5.8037 H   0  0  0  0  0  0  0  0  0  0  0  0
    8.1641   11.3607    5.0787 H   0  0  0  0  0  0  0  0  0  0  0  0
    7.7437    8.1356    2.5698 H   0  0  0  0  0  0  0  0  0  0  0  0
  1  2  1  0  0  0  0
  1 29  1  0  0  0  0
  1 30  1  0  0  0  0
  1 31  1  0  0  0  0
  2  3  2  0  0  0  0
  2  4  2  0  0  0  0
  2  5  1  0  0  0  0
  5  6  1  0  0  0  0
  5 10  2  0  0  0  0
  6  7  2  0  0  0  0
  6 32  1  0  0  0  0
  7  8  1  0  0  0  0
  7 33  1  0  0  0  0
  8  9  2  0  0  0  0
  8 11  1  0  0  0  0
  9 10  1  0  0  0  0
  9 34  1  0  0  0  0
 10 35  1  0  0  0  0
 11 12  1  0  0  0  0
 11 15  2  0  0  0  0
 12 13  1  0  0  0  0
 13 14  2  0  0  0  0
 13 23  1  0  0  0  0
 14 15  1  0  0  0  0
 15 16  1  0  0  0  0
 16 17  1  0  0  0  0
 16 22  2  0  0  0  0
 17 18  2  0  0  0  0
 17 36  1  0  0  0  0
 18 19  1  0  0  0  0
 18 37  1  0  0  0  0
 19 20  1  0  0  0  0
 19 21  2  0  0  0  0
 21 22  1  0  0  0  0
 21 38  1  0  0  0  0
 22 39  1  0  0  0  0
 23 24  1  0  0  0  0
 23 28  2  0  0  0  0
 24 25  2  0  0  0  0
 24 40  1  0  0  0  0
 25 26  1  0  0  0  0
 25 41  1  0  0  0  0
 26 27  2  0  0  0  0
 26 42  1  0  0  0  0
 27 28  1  0  0  0  0
 28 43  1  0  0  0  0
M  END
$$$$
