
 OpenBabel07142517233D

 45 48  0  0  1  0  0  0  0  0999 V2000
    1.8693   -0.6145    1.1323 N   0  0  0  0  0  0  0  0  0  0  0  0
    2.9821   -0.0022    0.0315 S   0  0  0  0  0  0  0  0  0  0  0  0
    4.1296   -0.8738    0.0924 O   0  0  0  0  0  0  0  0  0  0  0  0
    2.2419    0.2274   -1.1892 O   0  0  0  0  0  0  0  0  0  0  0  0
    3.3827    1.5528    0.7695 C   0  0  0  0  0  0  0  0  0  0  0  0
    4.4647    1.6648    1.6373 C   0  0  0  0  0  0  0  0  0  0  0  0
    4.7400    2.9040    2.2261 C   0  0  0  0  0  0  0  0  0  0  0  0
    3.9410    4.0373    1.9846 C   0  0  0  0  0  0  0  0  0  0  0  0
    2.8799    3.8953    1.0751 C   0  0  0  0  0  0  0  0  0  0  0  0
    2.6062    2.6699    0.4602 C   0  0  0  0  0  0  0  0  0  0  0  0
    4.1908    5.2306    2.6590 N   0  0  0  0  0  0  0  0  0  0  0  0
    5.4519    5.5292    3.0800 N   0  0  0  0  0  0  0  0  0  0  0  0
    5.4157    6.7435    3.5437 C   0  0  0  0  0  0  0  0  0  0  0  0
    4.0733    7.4079    3.5192 C   0  0  0  0  0  0  0  0  0  0  0  0
    3.2429    6.3385    2.8175 C   0  0  3  0  0  0  0  0  0  0  0  0
    2.0023    5.9655    3.6171 C   0  0  0  0  0  0  0  0  0  0  0  0
    0.7971    6.6353    3.3639 C   0  0  0  0  0  0  0  0  0  0  0  0
   -0.3862    6.2331    3.9908 C   0  0  0  0  0  0  0  0  0  0  0  0
   -0.3917    5.1576    4.8903 C   0  0  0  0  0  0  0  0  0  0  0  0
   -1.5846    4.6783    5.4510 C   0  0  0  0  0  0  0  0  0  0  0  0
   -1.5806    3.6056    6.3422 C   0  0  0  0  0  0  0  0  0  0  0  0
   -0.3760    3.0185    6.7126 C   0  0  0  0  0  0  0  0  0  0  0  0
    0.8225    3.4790    6.1595 C   0  0  0  0  0  0  0  0  0  0  0  0
    0.8252    4.5295    5.2251 C   0  0  0  0  0  0  0  0  0  0  0  0
    2.0086    4.9498    4.5903 C   0  0  0  0  0  0  0  0  0  0  0  0
    6.6086    7.4831    4.0741 C   0  0  0  0  0  0  0  0  0  0  0  0
    6.2724    8.7190    4.5404 F   0  0  0  0  0  0  0  0  0  0  0  0
    7.2111    6.8397    5.1090 F   0  0  0  0  0  0  0  0  0  0  0  0
    7.5615    7.6865    3.1259 F   0  0  0  0  0  0  0  0  0  0  0  0
    2.1629   -1.5424    1.4377 H   0  0  0  0  0  0  0  0  0  0  0  0
    0.9280   -0.5776    0.7459 H   0  0  0  0  0  0  0  0  0  0  0  0
    5.0828    0.8040    1.8782 H   0  0  0  0  0  0  0  0  0  0  0  0
    5.5719    2.9779    2.9243 H   0  0  0  0  0  0  0  0  0  0  0  0
    2.2463    4.7400    0.8224 H   0  0  0  0  0  0  0  0  0  0  0  0
    1.7786    2.5954   -0.2417 H   0  0  0  0  0  0  0  0  0  0  0  0
    4.1228    8.3330    2.9376 H   0  0  0  0  0  0  0  0  0  0  0  0
    3.7534    7.6330    4.5410 H   0  0  0  0  0  0  0  0  0  0  0  0
    2.9449    6.7077    1.8272 H   0  0  0  0  0  0  0  0  0  0  0  0
    0.7578    7.4579    2.6539 H   0  0  0  0  0  0  0  0  0  0  0  0
   -1.3099    6.7548    3.7559 H   0  0  0  0  0  0  0  0  0  0  0  0
   -2.5412    5.1272    5.1766 H   0  0  0  0  0  0  0  0  0  0  0  0
   -2.5171    3.2277    6.7453 H   0  0  0  0  0  0  0  0  0  0  0  0
   -0.3641    2.1950    7.4201 H   0  0  0  0  0  0  0  0  0  0  0  0
    1.7533    3.0022    6.4523 H   0  0  0  0  0  0  0  0  0  0  0  0
    2.9421    4.4352    4.8202 H   0  0  0  0  0  0  0  0  0  0  0  0
  1  2  1  0  0  0  0
  1 30  1  0  0  0  0
  1 31  1  0  0  0  0
  2  3  2  0  0  0  0
  2  4  2  0  0  0  0
  2  5  1  0  0  0  0
  5  6  1  0  0  0  0
  5 10  2  0  0  0  0
  6  7  2  0  0  0  0
  6 32  1  0  0  0  0
  7  8  1  0  0  0  0
  7 33  1  0  0  0  0
  8  9  2  0  0  0  0
  8 11  1  0  0  0  0
  9 10  1  0  0  0  0
  9 34  1  0  0  0  0
 10 35  1  0  0  0  0
 11 12  1  0  0  0  0
 11 15  1  0  0  0  0
 12 13  2  0  0  0  0
 13 14  1  0  0  0  0
 13 26  1  0  0  0  0
 14 15  1  0  0  0  0
 14 36  1  0  0  0  0
 14 37  1  0  0  0  0
 15 16  1  0  0  0  0
 15 38  1  0  0  0  0
 16 17  1  0  0  0  0
 16 25  2  0  0  0  0
 17 18  2  0  0  0  0
 17 39  1  0  0  0  0
 18 19  1  0  0  0  0
 18 40  1  0  0  0  0
 19 20  1  0  0  0  0
 19 24  2  0  0  0  0
 20 21  2  0  0  0  0
 20 41  1  0  0  0  0
 21 22  1  0  0  0  0
 21 42  1  0  0  0  0
 22 23  2  0  0  0  0
 22 43  1  0  0  0  0
 23 24  1  0  0  0  0
 23 44  1  0  0  0  0
 24 25  1  0  0  0  0
 25 45  1  0  0  0  0
 26 27  1  0  0  0  0
 26 28  1  0  0  0  0
 26 29  1  0  0  0  0
M  END
$$$$
