
 OpenBabel07142516563D

 44 47  0  0  0  0  0  0  0  0999 V2000
    2.3669   -0.6819    1.7274 C   0  0  0  0  0  0  0  0  0  0  0  0
    3.1057   -0.1688    0.1974 S   0  0  0  0  0  0  0  0  0  0  0  0
    4.3395   -0.9082    0.0171 O   0  0  0  0  0  0  0  0  0  0  0  0
    2.0807   -0.1766   -0.8263 O   0  0  0  0  0  0  0  0  0  0  0  0
    3.5512    1.5270    0.4986 C   0  0  0  0  0  0  0  0  0  0  0  0
    4.7805    1.8341    1.0831 C   0  0  0  0  0  0  0  0  0  0  0  0
    5.1002    3.1692    1.3592 C   0  0  0  0  0  0  0  0  0  0  0  0
    4.2169    4.2138    1.0279 C   0  0  0  0  0  0  0  0  0  0  0  0
    3.0319    3.8761    0.3509 C   0  0  0  0  0  0  0  0  0  0  0  0
    2.6818    2.5440    0.1118 C   0  0  0  0  0  0  0  0  0  0  0  0
    4.4730    5.6086    1.4463 C   0  0  0  0  0  0  0  0  0  0  0  0
    6.0698    6.2640    1.3478 S   0  0  0  0  0  0  0  0  0  0  0  0
    5.5313    7.7618    2.0049 C   0  0  0  0  0  0  0  0  0  0  0  0
    4.2405    7.8090    2.2459 N   0  0  0  0  0  0  0  0  0  0  0  0
    3.6276    6.6033    1.9394 C   0  0  0  0  0  0  0  0  0  0  0  0
    2.1857    6.4841    2.1432 C   0  0  0  0  0  0  0  0  0  0  0  0
    1.3456    7.5310    1.7285 C   0  0  0  0  0  0  0  0  0  0  0  0
   -0.0415    7.4203    1.8591 C   0  0  0  0  0  0  0  0  0  0  0  0
   -0.5877    6.2630    2.3992 C   0  0  0  0  0  0  0  0  0  0  0  0
   -1.9176    6.1432    2.5012 F   0  0  0  0  0  0  0  0  0  0  0  0
    0.2258    5.2263    2.8388 C   0  0  0  0  0  0  0  0  0  0  0  0
    1.6125    5.3487    2.7362 C   0  0  0  0  0  0  0  0  0  0  0  0
    6.4751    8.8661    2.2672 C   0  0  0  0  0  0  0  0  0  0  0  0
    7.7394    8.5953    2.8331 C   0  0  0  0  0  0  0  0  0  0  0  0
    8.6440    9.6215    3.1298 C   0  0  0  0  0  0  0  0  0  0  0  0
    8.2985   10.9447    2.8783 C   0  0  0  0  0  0  0  0  0  0  0  0
    7.0526   11.2397    2.3289 C   0  0  0  0  0  0  0  0  0  0  0  0
    6.1458   10.2132    2.0230 C   0  0  0  0  0  0  0  0  0  0  0  0
    4.6481   10.7058    1.3041 Cl  0  0  0  0  0  0  0  0  0  0  0  0
    2.0699   -1.7275    1.6211 H   0  0  0  0  0  0  0  0  0  0  0  0
    1.4878   -0.0656    1.9251 H   0  0  0  0  0  0  0  0  0  0  0  0
    3.0994   -0.5869    2.5314 H   0  0  0  0  0  0  0  0  0  0  0  0
    5.4889    1.0470    1.3378 H   0  0  0  0  0  0  0  0  0  0  0  0
    6.0477    3.3764    1.8546 H   0  0  0  0  0  0  0  0  0  0  0  0
    2.3384    4.6515    0.0294 H   0  0  0  0  0  0  0  0  0  0  0  0
    1.7310    2.3183   -0.3672 H   0  0  0  0  0  0  0  0  0  0  0  0
    1.7709    8.4355    1.2948 H   0  0  0  0  0  0  0  0  0  0  0  0
   -0.6946    8.2254    1.5376 H   0  0  0  0  0  0  0  0  0  0  0  0
   -0.2217    4.3305    3.2560 H   0  0  0  0  0  0  0  0  0  0  0  0
    2.2388    4.5386    3.1009 H   0  0  0  0  0  0  0  0  0  0  0  0
    8.0354    7.5763    3.0697 H   0  0  0  0  0  0  0  0  0  0  0  0
    9.6136    9.3846    3.5659 H   0  0  0  0  0  0  0  0  0  0  0  0
    8.9950   11.7463    3.1116 H   0  0  0  0  0  0  0  0  0  0  0  0
    6.7890   12.2781    2.1377 H   0  0  0  0  0  0  0  0  0  0  0  0
  1  2  1  0  0  0  0
  1 30  1  0  0  0  0
  1 31  1  0  0  0  0
  1 32  1  0  0  0  0
  2  3  2  0  0  0  0
  2  4  2  0  0  0  0
  2  5  1  0  0  0  0
  5  6  1  0  0  0  0
  5 10  2  0  0  0  0
  6  7  2  0  0  0  0
  6 33  1  0  0  0  0
  7  8  1  0  0  0  0
  7 34  1  0  0  0  0
  8  9  2  0  0  0  0
  8 11  1  0  0  0  0
  9 10  1  0  0  0  0
  9 35  1  0  0  0  0
 10 36  1  0  0  0  0
 11 12  1  0  0  0  0
 11 15  2  0  0  0  0
 12 13  1  0  0  0  0
 13 14  2  0  0  0  0
 13 23  1  0  0  0  0
 14 15  1  0  0  0  0
 15 16  1  0  0  0  0
 16 17  1  0  0  0  0
 16 22  2  0  0  0  0
 17 18  2  0  0  0  0
 17 37  1  0  0  0  0
 18 19  1  0  0  0  0
 18 38  1  0  0  0  0
 19 20  1  0  0  0  0
 19 21  2  0  0  0  0
 21 22  1  0  0  0  0
 21 39  1  0  0  0  0
 22 40  1  0  0  0  0
 23 24  1  0  0  0  0
 23 28  2  0  0  0  0
 24 25  2  0  0  0  0
 24 41  1  0  0  0  0
 25 26  1  0  0  0  0
 25 42  1  0  0  0  0
 26 27  2  0  0  0  0
 26 43  1  0  0  0  0
 27 28  1  0  0  0  0
 27 44  1  0  0  0  0
 28 29  1  0  0  0  0
M  END
$$$$
