
 OpenBabel07142517273D

 40 42  0  0  0  0  0  0  0  0999 V2000
    1.4045   -0.5785   -0.0358 C   0  0  0  0  0  0  0  0  0  0  0  0
    2.6628    0.0780   -0.1352 O   0  0  0  0  0  0  0  0  0  0  0  0
    3.2554    0.4103    1.0519 C   0  0  0  0  0  0  0  0  0  0  0  0
    4.6457    0.5288    1.0072 C   0  0  0  0  0  0  0  0  0  0  0  0
    5.3653    0.8964    2.1468 C   0  0  0  0  0  0  0  0  0  0  0  0
    4.6932    1.1731    3.3419 C   0  0  0  0  0  0  0  0  0  0  0  0
    3.2986    1.0470    3.3864 C   0  0  0  0  0  0  0  0  0  0  0  0
    2.5821    0.6715    2.2448 C   0  0  0  0  0  0  0  0  0  0  0  0
    5.4320    1.6678    4.5167 C   0  0  0  0  0  0  0  0  0  0  0  0
    5.6443    2.9845    4.7259 C   0  0  0  0  0  0  0  0  0  0  0  0
    6.3247    3.4980    5.8177 O   0  0  0  0  0  0  0  0  0  0  0  0
    6.7994    2.6279    6.7619 C   0  0  0  0  0  0  0  0  0  0  0  0
    6.6717    1.3022    6.6993 C   0  0  0  0  0  0  0  0  0  0  0  0
    7.2927    0.2781    7.9267 Cl  0  0  0  0  0  0  0  0  0  0  0  0
    5.9660    0.7078    5.5346 C   0  0  0  0  0  0  0  0  0  0  0  0
    5.8195   -0.5046    5.4137 O   0  0  0  0  0  0  0  0  0  0  0  0
    5.1639    4.0513    3.8363 C   0  0  0  0  0  0  0  0  0  0  0  0
    3.8759    4.5769    4.0110 C   0  0  0  0  0  0  0  0  0  0  0  0
    3.4491    5.6585    3.2436 C   0  0  0  0  0  0  0  0  0  0  0  0
    4.3199    6.2222    2.3073 C   0  0  0  0  0  0  0  0  0  0  0  0
    5.5888    5.6781    2.0896 C   0  0  0  0  0  0  0  0  0  0  0  0
    6.0105    4.5928    2.8593 C   0  0  0  0  0  0  0  0  0  0  0  0
    3.8168    7.6654    1.4224 S   0  0  0  0  0  0  0  0  0  0  0  0
    4.3318    8.8722    2.4718 N   0  0  0  0  0  0  0  0  0  0  0  0
    4.6223    7.8040    0.2300 O   0  0  0  0  0  0  0  0  0  0  0  0
    2.3744    7.7407    1.4040 O   0  0  0  0  0  0  0  0  0  0  0  0
    1.1228   -0.9098   -1.0401 H   0  0  0  0  0  0  0  0  0  0  0  0
    0.6239    0.1025    0.3171 H   0  0  0  0  0  0  0  0  0  0  0  0
    1.4736   -1.4654    0.6031 H   0  0  0  0  0  0  0  0  0  0  0  0
    5.1715    0.3315    0.0762 H   0  0  0  0  0  0  0  0  0  0  0  0
    6.4480    0.9758    2.0856 H   0  0  0  0  0  0  0  0  0  0  0  0
    2.7556    1.2585    4.3046 H   0  0  0  0  0  0  0  0  0  0  0  0
    1.5003    0.6187    2.3111 H   0  0  0  0  0  0  0  0  0  0  0  0
    7.2900    3.1612    7.5647 H   0  0  0  0  0  0  0  0  0  0  0  0
    3.2081    4.1606    4.7622 H   0  0  0  0  0  0  0  0  0  0  0  0
    2.4558    6.0727    3.3994 H   0  0  0  0  0  0  0  0  0  0  0  0
    6.2590    6.1083    1.3489 H   0  0  0  0  0  0  0  0  0  0  0  0
    7.0092    4.1881    2.7093 H   0  0  0  0  0  0  0  0  0  0  0  0
    5.0419    9.4507    2.0229 H   0  0  0  0  0  0  0  0  0  0  0  0
    3.5324    9.3909    2.8342 H   0  0  0  0  0  0  0  0  0  0  0  0
  1  2  1  0  0  0  0
  1 27  1  0  0  0  0
  1 28  1  0  0  0  0
  1 29  1  0  0  0  0
  2  3  1  0  0  0  0
  3  4  1  0  0  0  0
  3  8  2  0  0  0  0
  4  5  2  0  0  0  0
  4 30  1  0  0  0  0
  5  6  1  0  0  0  0
  5 31  1  0  0  0  0
  6  7  2  0  0  0  0
  6  9  1  0  0  0  0
  7  8  1  0  0  0  0
  7 32  1  0  0  0  0
  8 33  1  0  0  0  0
  9 10  2  0  0  0  0
  9 15  1  0  0  0  0
 10 11  1  0  0  0  0
 10 17  1  0  0  0  0
 11 12  1  0  0  0  0
 12 13  2  0  0  0  0
 12 34  1  0  0  0  0
 13 14  1  0  0  0  0
 13 15  1  0  0  0  0
 15 16  2  0  0  0  0
 17 18  1  0  0  0  0
 17 22  2  0  0  0  0
 18 19  2  0  0  0  0
 18 35  1  0  0  0  0
 19 20  1  0  0  0  0
 19 36  1  0  0  0  0
 20 21  2  0  0  0  0
 20 23  1  0  0  0  0
 21 22  1  0  0  0  0
 21 37  1  0  0  0  0
 22 38  1  0  0  0  0
 23 24  1  0  0  0  0
 23 25  2  0  0  0  0
 23 26  2  0  0  0  0
 24 39  1  0  0  0  0
 24 40  1  0  0  0  0
M  END
$$$$
