
 OpenBabel07142516023D

 37 39  0  0  0  0  0  0  0  0999 V2000
    2.0708   -0.0171    0.0347 C   0  0  0  0  0  0  0  0  0  0  0  0
    0.5993    0.1026    0.0489 C   0  0  0  0  0  0  0  0  0  0  0  0
   -0.1448    1.1885    0.0574 N   0  0  0  0  0  0  0  0  0  0  0  0
   -1.4353    0.7031    0.0773 C   0  0  0  0  0  0  0  0  0  0  0  0
   -1.4195   -0.6806    0.0221 C   0  0  0  0  0  0  0  0  0  0  0  0
   -0.1024   -1.0690    0.0371 O   0  0  0  0  0  0  0  0  0  0  0  0
   -2.3968   -1.7538   -0.1007 C   0  0  0  0  0  0  0  0  0  0  0  0
   -3.5912   -1.5499   -0.8119 C   0  0  0  0  0  0  0  0  0  0  0  0
   -4.5294   -2.5709   -0.9578 C   0  0  0  0  0  0  0  0  0  0  0  0
   -4.2511   -3.8283   -0.4216 C   0  0  0  0  0  0  0  0  0  0  0  0
   -3.0843   -4.0506    0.3140 C   0  0  0  0  0  0  0  0  0  0  0  0
   -2.1616   -3.0130    0.4715 C   0  0  0  0  0  0  0  0  0  0  0  0
   -5.3861   -5.1596   -0.7052 S   0  0  0  0  0  0  0  0  0  0  0  0
   -4.7567   -5.8883   -2.2021 C   0  0  0  0  0  0  0  0  0  0  0  0
   -5.2107   -6.1184    0.3731 O   0  0  0  0  0  0  0  0  0  0  0  0
   -6.6824   -4.5835   -0.9885 O   0  0  0  0  0  0  0  0  0  0  0  0
   -2.6020    1.5655    0.1431 C   0  0  0  0  0  0  0  0  0  0  0  0
   -2.6013    2.7955   -0.5301 C   0  0  0  0  0  0  0  0  0  0  0  0
   -3.7179    3.6333   -0.4669 C   0  0  0  0  0  0  0  0  0  0  0  0
   -4.8347    3.2375    0.2625 C   0  0  0  0  0  0  0  0  0  0  0  0
   -5.9018    4.0467    0.3293 F   0  0  0  0  0  0  0  0  0  0  0  0
   -4.8592    2.0222    0.9275 C   0  0  0  0  0  0  0  0  0  0  0  0
   -3.7364    1.1968    0.8852 C   0  0  0  0  0  0  0  0  0  0  0  0
    2.5397    0.9707    0.0136 H   0  0  0  0  0  0  0  0  0  0  0  0
    2.4002   -0.5713   -0.8494 H   0  0  0  0  0  0  0  0  0  0  0  0
    2.4217   -0.5453    0.9262 H   0  0  0  0  0  0  0  0  0  0  0  0
   -3.8099   -0.5884   -1.2715 H   0  0  0  0  0  0  0  0  0  0  0  0
   -5.4515   -2.3799   -1.4985 H   0  0  0  0  0  0  0  0  0  0  0  0
   -2.8802   -5.0235    0.7573 H   0  0  0  0  0  0  0  0  0  0  0  0
   -1.2525   -3.1947    1.0427 H   0  0  0  0  0  0  0  0  0  0  0  0
   -3.7416   -6.2434   -2.0244 H   0  0  0  0  0  0  0  0  0  0  0  0
   -4.7702   -5.1358   -2.9937 H   0  0  0  0  0  0  0  0  0  0  0  0
   -5.4034   -6.7226   -2.4709 H   0  0  0  0  0  0  0  0  0  0  0  0
   -1.7307    3.1048   -1.1060 H   0  0  0  0  0  0  0  0  0  0  0  0
   -3.7217    4.5915   -0.9774 H   0  0  0  0  0  0  0  0  0  0  0  0
   -5.7429    1.7239    1.4835 H   0  0  0  0  0  0  0  0  0  0  0  0
   -3.7642    0.2581    1.4346 H   0  0  0  0  0  0  0  0  0  0  0  0
  1  2  1  0  0  0  0
  1 24  1  0  0  0  0
  1 25  1  0  0  0  0
  1 26  1  0  0  0  0
  2  3  2  0  0  0  0
  2  6  1  0  0  0  0
  3  4  1  0  0  0  0
  4  5  2  0  0  0  0
  4 17  1  0  0  0  0
  5  6  1  0  0  0  0
  5  7  1  0  0  0  0
  7  8  1  0  0  0  0
  7 12  2  0  0  0  0
  8  9  2  0  0  0  0
  8 27  1  0  0  0  0
  9 10  1  0  0  0  0
  9 28  1  0  0  0  0
 10 11  2  0  0  0  0
 10 13  1  0  0  0  0
 11 12  1  0  0  0  0
 11 29  1  0  0  0  0
 12 30  1  0  0  0  0
 13 14  1  0  0  0  0
 13 15  2  0  0  0  0
 13 16  2  0  0  0  0
 14 31  1  0  0  0  0
 14 32  1  0  0  0  0
 14 33  1  0  0  0  0
 17 18  1  0  0  0  0
 17 23  2  0  0  0  0
 18 19  2  0  0  0  0
 18 34  1  0  0  0  0
 19 20  1  0  0  0  0
 19 35  1  0  0  0  0
 20 21  1  0  0  0  0
 20 22  2  0  0  0  0
 22 23  1  0  0  0  0
 22 36  1  0  0  0  0
 23 37  1  0  0  0  0
M  END
$$$$
