
 OpenBabel07142516103D

 55 57  0  0  1  0  0  0  0  0999 V2000
    0.8248    0.0735    0.0081 C   0  0  0  0  0  0  0  0  0  0  0  0
    2.3216    0.0169   -0.0181 C   0  0  0  0  0  0  0  0  0  0  0  0
    3.1958    1.1017   -0.0056 C   0  0  0  0  0  0  0  0  0  0  0  0
    4.5020    0.5519    0.0516 C   0  0  0  0  0  0  0  0  0  0  0  0
    4.4335   -0.8350    0.0445 C   0  0  0  0  0  0  0  0  0  0  0  0
    5.5903   -1.7645   -0.0214 C   0  0  0  0  0  0  0  0  0  0  0  0
    6.7894   -1.4510    0.6438 C   0  0  0  0  0  0  0  0  0  0  0  0
    7.8758   -2.3355    0.6399 C   0  0  0  0  0  0  0  0  0  0  0  0
    7.7578   -3.5655   -0.0064 C   0  0  0  0  0  0  0  0  0  0  0  0
    6.5991   -3.8809   -0.7132 C   0  0  0  0  0  0  0  0  0  0  0  0
    5.5442   -2.9634   -0.7508 C   0  0  0  0  0  0  0  0  0  0  0  0
    9.1132   -4.7147    0.0058 S   0  0  0  0  0  0  0  0  0  0  0  0
    8.8200   -5.6857    1.4610 C   0  0  0  0  0  0  0  0  0  0  0  0
    8.9660   -5.5804   -1.1481 O   0  0  0  0  0  0  0  0  0  0  0  0
   10.3312   -3.9506    0.2116 O   0  0  0  0  0  0  0  0  0  0  0  0
    3.0656   -1.1730    0.0436 N   0  0  0  0  0  0  0  0  0  0  0  0
    2.5110   -2.4952    0.1460 C   0  0  0  0  0  0  0  0  0  0  0  0
    1.4032   -2.8719   -0.6288 C   0  0  0  0  0  0  0  0  0  0  0  0
    0.8826   -4.1685   -0.5503 C   0  0  0  0  0  0  0  0  0  0  0  0
    1.4946   -5.1148    0.2657 C   0  0  0  0  0  0  0  0  0  0  0  0
    2.6055   -4.7497    1.0148 C   0  0  0  0  0  0  0  0  0  0  0  0
    3.2252   -5.6719    1.7633 F   0  0  0  0  0  0  0  0  0  0  0  0
    3.0996   -3.4480    0.9881 C   0  0  0  0  0  0  0  0  0  0  0  0
    2.8272    2.5659   -0.0090 C   0  0  3  0  0  0  0  0  0  0  0  0
    2.6595    2.9885    1.4068 N   0  0  0  0  0  0  0  0  0  0  0  0
    3.8525    3.4904   -0.7323 C   0  0  0  0  0  0  0  0  0  0  0  0
    4.4389    3.1883   -1.7635 O   0  0  0  0  0  0  0  0  0  0  0  0
    3.9954    4.7276   -0.1390 N   0  0  0  0  0  0  0  0  0  0  0  0
    4.9332    5.7231   -0.6396 C   0  0  0  0  0  0  0  0  0  0  0  0
    4.3692    6.5118   -1.8233 C   0  0  0  0  0  0  0  0  0  0  0  0
    3.2571    7.3035   -1.4038 O   0  0  0  0  0  0  0  0  0  0  0  0
    0.4626    1.0952    0.1567 H   0  0  0  0  0  0  0  0  0  0  0  0
    0.4213   -0.5271    0.8291 H   0  0  0  0  0  0  0  0  0  0  0  0
    0.3985   -0.2583   -0.9413 H   0  0  0  0  0  0  0  0  0  0  0  0
    5.4232    1.1235    0.0462 H   0  0  0  0  0  0  0  0  0  0  0  0
    6.8948   -0.5071    1.1756 H   0  0  0  0  0  0  0  0  0  0  0  0
    8.8002   -2.0550    1.1419 H   0  0  0  0  0  0  0  0  0  0  0  0
    6.5030   -4.8271   -1.2406 H   0  0  0  0  0  0  0  0  0  0  0  0
    4.6701   -3.2199   -1.3441 H   0  0  0  0  0  0  0  0  0  0  0  0
    7.8560   -6.1890    1.3677 H   0  0  0  0  0  0  0  0  0  0  0  0
    8.8351   -5.0333    2.3359 H   0  0  0  0  0  0  0  0  0  0  0  0
    9.6180   -6.4275    1.5390 H   0  0  0  0  0  0  0  0  0  0  0  0
    0.9598   -2.1989   -1.3552 H   0  0  0  0  0  0  0  0  0  0  0  0
    0.0174   -4.4435   -1.1492 H   0  0  0  0  0  0  0  0  0  0  0  0
    1.1222   -6.1332    0.3119 H   0  0  0  0  0  0  0  0  0  0  0  0
    3.9511   -3.2128    1.6186 H   0  0  0  0  0  0  0  0  0  0  0  0
    1.8775    2.7235   -0.5311 H   0  0  0  0  0  0  0  0  0  0  0  0
    3.5151    2.7298    1.9028 H   0  0  0  0  0  0  0  0  0  0  0  0
    1.9381    2.3905    1.8131 H   0  0  0  0  0  0  0  0  0  0  0  0
    3.5184    4.8561    0.7545 H   0  0  0  0  0  0  0  0  0  0  0  0
    5.8523    5.2135   -0.9403 H   0  0  0  0  0  0  0  0  0  0  0  0
    5.1546    6.3972    0.1928 H   0  0  0  0  0  0  0  0  0  0  0  0
    4.0380    5.8572   -2.6355 H   0  0  0  0  0  0  0  0  0  0  0  0
    5.1296    7.1923   -2.2184 H   0  0  0  0  0  0  0  0  0  0  0  0
    2.5993    6.6754   -1.0571 H   0  0  0  0  0  0  0  0  0  0  0  0
  1  2  1  0  0  0  0
  1 32  1  0  0  0  0
  1 33  1  0  0  0  0
  1 34  1  0  0  0  0
  2  3  2  0  0  0  0
  2 16  1  0  0  0  0
  3  4  1  0  0  0  0
  3 24  1  0  0  0  0
  4  5  2  0  0  0  0
  4 35  1  0  0  0  0
  5  6  1  0  0  0  0
  5 16  1  0  0  0  0
  6  7  1  0  0  0  0
  6 11  2  0  0  0  0
  7  8  2  0  0  0  0
  7 36  1  0  0  0  0
  8  9  1  0  0  0  0
  8 37  1  0  0  0  0
  9 10  2  0  0  0  0
  9 12  1  0  0  0  0
 10 11  1  0  0  0  0
 10 38  1  0  0  0  0
 11 39  1  0  0  0  0
 12 13  1  0  0  0  0
 12 14  2  0  0  0  0
 12 15  2  0  0  0  0
 13 40  1  0  0  0  0
 13 41  1  0  0  0  0
 13 42  1  0  0  0  0
 16 17  1  0  0  0  0
 17 18  1  0  0  0  0
 17 23  2  0  0  0  0
 18 19  2  0  0  0  0
 18 43  1  0  0  0  0
 19 20  1  0  0  0  0
 19 44  1  0  0  0  0
 20 21  2  0  0  0  0
 20 45  1  0  0  0  0
 21 22  1  0  0  0  0
 21 23  1  0  0  0  0
 23 46  1  0  0  0  0
 24 25  1  0  0  0  0
 24 26  1  0  0  0  0
 24 47  1  0  0  0  0
 25 48  1  0  0  0  0
 25 49  1  0  0  0  0
 26 27  2  0  0  0  0
 26 28  1  0  0  0  0
 28 29  1  0  0  0  0
 28 50  1  0  0  0  0
 29 30  1  0  0  0  0
 29 51  1  0  0  0  0
 29 52  1  0  0  0  0
 30 31  1  0  0  0  0
 30 53  1  0  0  0  0
 30 54  1  0  0  0  0
 31 55  1  0  0  0  0
M  END
$$$$
