
 OpenBabel07142517463D

 37 39  0  0  0  0  0  0  0  0999 V2000
   -2.2673   -0.0125   -0.0142 C   0  0  0  0  0  0  0  0  0  0  0  0
   -0.7965   -0.2368   -0.0085 C   0  0  0  0  0  0  0  0  0  0  0  0
   -0.2249   -1.4159    0.0470 N   0  0  0  0  0  0  0  0  0  0  0  0
    1.1600   -1.2845    0.0659 C   0  0  0  0  0  0  0  0  0  0  0  0
    1.6346    0.0238   -0.0234 C   0  0  0  0  0  0  0  0  0  0  0  0
    0.2718    1.0935   -0.0750 S   0  0  0  0  0  0  0  0  0  0  0  0
    2.9920    0.5956   -0.1234 C   0  0  0  0  0  0  0  0  0  0  0  0
    3.9871   -0.0540   -0.8743 C   0  0  0  0  0  0  0  0  0  0  0  0
    5.2850    0.4562   -0.9550 C   0  0  0  0  0  0  0  0  0  0  0  0
    5.5842    1.6652   -0.3301 C   0  0  0  0  0  0  0  0  0  0  0  0
    4.6198    2.3365    0.4198 C   0  0  0  0  0  0  0  0  0  0  0  0
    3.3343    1.7965    0.5264 C   0  0  0  0  0  0  0  0  0  0  0  0
    7.2080    2.3596   -0.5051 S   0  0  0  0  0  0  0  0  0  0  0  0
    7.0502    3.3311   -1.9835 C   0  0  0  0  0  0  0  0  0  0  0  0
    7.4228    3.2627    0.6114 O   0  0  0  0  0  0  0  0  0  0  0  0
    8.1254    1.2683   -0.7713 O   0  0  0  0  0  0  0  0  0  0  0  0
    1.9759   -2.4970    0.1371 C   0  0  0  0  0  0  0  0  0  0  0  0
    1.5824   -3.6327   -0.5923 C   0  0  0  0  0  0  0  0  0  0  0  0
    2.3568   -4.7950   -0.5716 C   0  0  0  0  0  0  0  0  0  0  0  0
    3.5276   -4.8232    0.1751 C   0  0  0  0  0  0  0  0  0  0  0  0
    4.2809   -5.9304    0.1813 F   0  0  0  0  0  0  0  0  0  0  0  0
    3.9260   -3.7205    0.9200 C   0  0  0  0  0  0  0  0  0  0  0  0
    3.1389   -2.5661    0.9196 C   0  0  0  0  0  0  0  0  0  0  0  0
   -2.8031   -0.9673   -0.0002 H   0  0  0  0  0  0  0  0  0  0  0  0
   -2.5755    0.5339   -0.9114 H   0  0  0  0  0  0  0  0  0  0  0  0
   -2.5751    0.5591    0.8673 H   0  0  0  0  0  0  0  0  0  0  0  0
    3.7681   -0.9795   -1.4037 H   0  0  0  0  0  0  0  0  0  0  0  0
    6.0434   -0.0926   -1.5097 H   0  0  0  0  0  0  0  0  0  0  0  0
    4.8531    3.2729    0.9232 H   0  0  0  0  0  0  0  0  0  0  0  0
    2.6028    2.3324    1.1293 H   0  0  0  0  0  0  0  0  0  0  0  0
    6.2859    4.0954   -1.8259 H   0  0  0  0  0  0  0  0  0  0  0  0
    6.7742    2.6752   -2.8124 H   0  0  0  0  0  0  0  0  0  0  0  0
    8.0132    3.8026   -2.1861 H   0  0  0  0  0  0  0  0  0  0  0  0
    0.6675   -3.6119   -1.1818 H   0  0  0  0  0  0  0  0  0  0  0  0
    2.0541   -5.6732   -1.1326 H   0  0  0  0  0  0  0  0  0  0  0  0
    4.8441   -3.7634    1.4973 H   0  0  0  0  0  0  0  0  0  0  0  0
    3.4541   -1.7202    1.5259 H   0  0  0  0  0  0  0  0  0  0  0  0
  1  2  1  0  0  0  0
  1 24  1  0  0  0  0
  1 25  1  0  0  0  0
  1 26  1  0  0  0  0
  2  3  2  0  0  0  0
  2  6  1  0  0  0  0
  3  4  1  0  0  0  0
  4  5  2  0  0  0  0
  4 17  1  0  0  0  0
  5  6  1  0  0  0  0
  5  7  1  0  0  0  0
  7  8  1  0  0  0  0
  7 12  2  0  0  0  0
  8  9  2  0  0  0  0
  8 27  1  0  0  0  0
  9 10  1  0  0  0  0
  9 28  1  0  0  0  0
 10 11  2  0  0  0  0
 10 13  1  0  0  0  0
 11 12  1  0  0  0  0
 11 29  1  0  0  0  0
 12 30  1  0  0  0  0
 13 14  1  0  0  0  0
 13 15  2  0  0  0  0
 13 16  2  0  0  0  0
 14 31  1  0  0  0  0
 14 32  1  0  0  0  0
 14 33  1  0  0  0  0
 17 18  1  0  0  0  0
 17 23  2  0  0  0  0
 18 19  2  0  0  0  0
 18 34  1  0  0  0  0
 19 20  1  0  0  0  0
 19 35  1  0  0  0  0
 20 21  1  0  0  0  0
 20 22  2  0  0  0  0
 22 23  1  0  0  0  0
 22 36  1  0  0  0  0
 23 37  1  0  0  0  0
M  END
$$$$
