
 OpenBabel07142516223D

 38 40  0  0  0  0  0  0  0  0999 V2000
    3.9161    0.7507   -0.6021 C   0  0  0  0  0  0  0  0  0  0  0  0
    2.4110    0.1832    0.1442 S   0  0  0  0  0  0  0  0  0  0  0  0
    1.5407    1.3302    0.3359 O   0  0  0  0  0  0  0  0  0  0  0  0
    1.9550   -0.9833   -0.5890 O   0  0  0  0  0  0  0  0  0  0  0  0
    2.9316   -0.3640    1.7503 C   0  0  0  0  0  0  0  0  0  0  0  0
    2.9361    0.5325    2.8225 C   0  0  0  0  0  0  0  0  0  0  0  0
    3.3453    0.0975    4.0866 C   0  0  0  0  0  0  0  0  0  0  0  0
    3.7508   -1.2325    4.2716 C   0  0  0  0  0  0  0  0  0  0  0  0
    3.6849   -2.1347    3.1989 C   0  0  0  0  0  0  0  0  0  0  0  0
    3.2887   -1.6993    1.9345 C   0  0  0  0  0  0  0  0  0  0  0  0
    4.2283   -1.6611    5.5439 N   0  0  0  0  0  0  0  0  0  0  0  0
    3.7678   -1.1829    6.7539 C   0  0  0  0  0  0  0  0  0  0  0  0
    4.3135   -1.9892    7.7335 C   0  0  0  0  0  0  0  0  0  0  0  0
    5.1924   -2.8808    7.1460 N   0  0  0  0  0  0  0  0  0  0  0  0
    5.1957   -2.6258    5.8443 C   0  0  0  0  0  0  0  0  0  0  0  0
    6.1376   -3.2640    4.9050 C   0  0  0  0  0  0  0  0  0  0  0  0
    6.5453   -4.5891    5.1315 C   0  0  0  0  0  0  0  0  0  0  0  0
    7.3895   -5.2414    4.2278 C   0  0  0  0  0  0  0  0  0  0  0  0
    7.8246   -4.5732    3.0912 C   0  0  0  0  0  0  0  0  0  0  0  0
    8.6014   -5.2073    2.2040 F   0  0  0  0  0  0  0  0  0  0  0  0
    7.4682   -3.2517    2.8621 C   0  0  0  0  0  0  0  0  0  0  0  0
    6.6594   -2.5891    3.7873 C   0  0  0  0  0  0  0  0  0  0  0  0
    4.0431   -1.9808    9.2125 C   0  0  0  0  0  0  0  0  0  0  0  0
    3.1342   -1.0246    9.5511 F   0  0  0  0  0  0  0  0  0  0  0  0
    3.5364   -3.1634    9.6497 F   0  0  0  0  0  0  0  0  0  0  0  0
    5.1596   -1.7272    9.9419 F   0  0  0  0  0  0  0  0  0  0  0  0
    3.6839    1.1037   -1.6091 H   0  0  0  0  0  0  0  0  0  0  0  0
    4.6230   -0.0795   -0.6539 H   0  0  0  0  0  0  0  0  0  0  0  0
    4.3220    1.5698   -0.0057 H   0  0  0  0  0  0  0  0  0  0  0  0
    2.6297    1.5680    2.6835 H   0  0  0  0  0  0  0  0  0  0  0  0
    3.3823    0.8251    4.8947 H   0  0  0  0  0  0  0  0  0  0  0  0
    3.9232   -3.1895    3.3235 H   0  0  0  0  0  0  0  0  0  0  0  0
    3.2556   -2.4092    1.1097 H   0  0  0  0  0  0  0  0  0  0  0  0
    3.0257   -0.4003    6.8264 H   0  0  0  0  0  0  0  0  0  0  0  0
    6.1998   -5.1214    6.0167 H   0  0  0  0  0  0  0  0  0  0  0  0
    7.7012   -6.2661    4.4019 H   0  0  0  0  0  0  0  0  0  0  0  0
    7.8172   -2.7455    1.9679 H   0  0  0  0  0  0  0  0  0  0  0  0
    6.4218   -1.5442    3.6038 H   0  0  0  0  0  0  0  0  0  0  0  0
  1  2  1  0  0  0  0
  1 27  1  0  0  0  0
  1 28  1  0  0  0  0
  1 29  1  0  0  0  0
  2  3  2  0  0  0  0
  2  4  2  0  0  0  0
  2  5  1  0  0  0  0
  5  6  1  0  0  0  0
  5 10  2  0  0  0  0
  6  7  2  0  0  0  0
  6 30  1  0  0  0  0
  7  8  1  0  0  0  0
  7 31  1  0  0  0  0
  8  9  2  0  0  0  0
  8 11  1  0  0  0  0
  9 10  1  0  0  0  0
  9 32  1  0  0  0  0
 10 33  1  0  0  0  0
 11 12  1  0  0  0  0
 11 15  1  0  0  0  0
 12 13  2  0  0  0  0
 12 34  1  0  0  0  0
 13 14  1  0  0  0  0
 13 23  1  0  0  0  0
 14 15  2  0  0  0  0
 15 16  1  0  0  0  0
 16 17  1  0  0  0  0
 16 22  2  0  0  0  0
 17 18  2  0  0  0  0
 17 35  1  0  0  0  0
 18 19  1  0  0  0  0
 18 36  1  0  0  0  0
 19 20  1  0  0  0  0
 19 21  2  0  0  0  0
 21 22  1  0  0  0  0
 21 37  1  0  0  0  0
 22 38  1  0  0  0  0
 23 24  1  0  0  0  0
 23 25  1  0  0  0  0
 23 26  1  0  0  0  0
M  END
$$$$
