
 OpenBabel07142516523D

 41 44  0  0  0  0  0  0  0  0999 V2000
    2.1458   -1.4470    0.4012 N   0  0  0  0  0  0  0  0  0  0  0  0
    2.4584    0.0968   -0.1634 S   0  0  0  0  0  0  0  0  0  0  0  0
    3.6177    0.0194   -1.0186 O   0  0  0  0  0  0  0  0  0  0  0  0
    1.1837    0.6023   -0.6236 O   0  0  0  0  0  0  0  0  0  0  0  0
    2.9009    0.9231    1.3302 C   0  0  0  0  0  0  0  0  0  0  0  0
    4.0205    0.5107    2.0498 C   0  0  0  0  0  0  0  0  0  0  0  0
    4.3462    1.1585    3.2473 C   0  0  0  0  0  0  0  0  0  0  0  0
    3.5252    2.1745    3.7517 C   0  0  0  0  0  0  0  0  0  0  0  0
    2.3940    2.5543    3.0147 C   0  0  0  0  0  0  0  0  0  0  0  0
    2.0917    1.9456    1.7980 C   0  0  0  0  0  0  0  0  0  0  0  0
    3.8518    2.9079    4.9913 C   0  0  0  0  0  0  0  0  0  0  0  0
    3.4922    4.2282    5.0696 N   0  0  0  0  0  0  0  0  0  0  0  0
    3.9428    4.8218    6.2064 C   0  0  0  0  0  0  0  0  0  0  0  0
    3.7523    6.1507    6.6043 C   0  0  0  0  0  0  0  0  0  0  0  0
    4.4538    6.5843    7.7185 C   0  0  0  0  0  0  0  0  0  0  0  0
    5.2981    5.7042    8.3814 C   0  0  0  0  0  0  0  0  0  0  0  0
    6.0305    6.1758    9.3946 F   0  0  0  0  0  0  0  0  0  0  0  0
    5.4210    4.3626    8.0088 C   0  0  0  0  0  0  0  0  0  0  0  0
    4.7033    3.8721    6.8885 C   0  0  0  0  0  0  0  0  0  0  0  0
    4.5088    2.5985    6.1956 C   0  0  0  0  0  0  0  0  0  0  0  0
    4.9416    1.2201    6.4910 C   0  0  0  0  0  0  0  0  0  0  0  0
    4.0840    0.1392    6.1794 C   0  0  0  0  0  0  0  0  0  0  0  0
    4.5623   -1.1744    6.1017 C   0  0  0  0  0  0  0  0  0  0  0  0
    5.8820   -1.4306    6.4287 C   0  0  0  0  0  0  0  0  0  0  0  0
    6.3692   -2.6701    6.2892 F   0  0  0  0  0  0  0  0  0  0  0  0
    6.7129   -0.4069    6.8736 C   0  0  0  0  0  0  0  0  0  0  0  0
    6.2459    0.9199    6.9095 C   0  0  0  0  0  0  0  0  0  0  0  0
    2.5070   -2.1338   -0.2608 H   0  0  0  0  0  0  0  0  0  0  0  0
    1.1570   -1.5558    0.6171 H   0  0  0  0  0  0  0  0  0  0  0  0
    4.6507   -0.3013    1.6850 H   0  0  0  0  0  0  0  0  0  0  0  0
    5.2412    0.8402    3.7725 H   0  0  0  0  0  0  0  0  0  0  0  0
    1.7200    3.3295    3.3665 H   0  0  0  0  0  0  0  0  0  0  0  0
    1.2233    2.2827    1.2372 H   0  0  0  0  0  0  0  0  0  0  0  0
    3.0233    4.7390    4.3355 H   0  0  0  0  0  0  0  0  0  0  0  0
    3.1044    6.8230    6.0478 H   0  0  0  0  0  0  0  0  0  0  0  0
    4.3631    7.6152    8.0491 H   0  0  0  0  0  0  0  0  0  0  0  0
    6.0850    3.7133    8.5793 H   0  0  0  0  0  0  0  0  0  0  0  0
    3.0530    0.3239    5.8806 H   0  0  0  0  0  0  0  0  0  0  0  0
    3.9277   -1.9773    5.7377 H   0  0  0  0  0  0  0  0  0  0  0  0
    7.7385   -0.6399    7.1416 H   0  0  0  0  0  0  0  0  0  0  0  0
    6.9319    1.7079    7.1993 H   0  0  0  0  0  0  0  0  0  0  0  0
  1  2  1  0  0  0  0
  1 28  1  0  0  0  0
  1 29  1  0  0  0  0
  2  3  2  0  0  0  0
  2  4  2  0  0  0  0
  2  5  1  0  0  0  0
  5  6  1  0  0  0  0
  5 10  2  0  0  0  0
  6  7  2  0  0  0  0
  6 30  1  0  0  0  0
  7  8  1  0  0  0  0
  7 31  1  0  0  0  0
  8  9  2  0  0  0  0
  8 11  1  0  0  0  0
  9 10  1  0  0  0  0
  9 32  1  0  0  0  0
 10 33  1  0  0  0  0
 11 12  1  0  0  0  0
 11 20  2  0  0  0  0
 12 13  1  0  0  0  0
 12 34  1  0  0  0  0
 13 14  1  0  0  0  0
 13 19  2  0  0  0  0
 14 15  2  0  0  0  0
 14 35  1  0  0  0  0
 15 16  1  0  0  0  0
 15 36  1  0  0  0  0
 16 17  1  0  0  0  0
 16 18  2  0  0  0  0
 18 19  1  0  0  0  0
 18 37  1  0  0  0  0
 19 20  1  0  0  0  0
 20 21  1  0  0  0  0
 21 22  1  0  0  0  0
 21 27  2  0  0  0  0
 22 23  2  0  0  0  0
 22 38  1  0  0  0  0
 23 24  1  0  0  0  0
 23 39  1  0  0  0  0
 24 25  1  0  0  0  0
 24 26  2  0  0  0  0
 26 27  1  0  0  0  0
 26 40  1  0  0  0  0
 27 41  1  0  0  0  0
M  END
$$$$
