
 OpenBabel07142516453D

 39 41  0  0  0  0  0  0  0  0999 V2000
    3.4834    1.4286    0.2753 N   0  0  0  0  0  0  0  0  0  0  0  0
    2.3403    0.1942    0.1826 S   0  0  0  0  0  0  0  0  0  0  0  0
    1.0496    0.8215    0.3272 O   0  0  0  0  0  0  0  0  0  0  0  0
    2.7118   -0.5768   -0.9803 O   0  0  0  0  0  0  0  0  0  0  0  0
    2.6831   -0.7446    1.6357 C   0  0  0  0  0  0  0  0  0  0  0  0
    2.6842   -0.1286    2.8907 C   0  0  0  0  0  0  0  0  0  0  0  0
    3.0748   -0.8564    4.0176 C   0  0  0  0  0  0  0  0  0  0  0  0
    3.4398   -2.2179    3.9281 C   0  0  0  0  0  0  0  0  0  0  0  0
    3.3384   -2.8243    2.6628 C   0  0  0  0  0  0  0  0  0  0  0  0
    3.0095   -2.0920    1.5230 C   0  0  0  0  0  0  0  0  0  0  0  0
    3.9132   -2.9728    5.1233 C   0  0  0  0  0  0  0  0  0  0  0  0
    3.2256   -2.7979    6.3443 C   0  0  0  0  0  0  0  0  0  0  0  0
    3.5608   -3.5235    7.4913 C   0  0  0  0  0  0  0  0  0  0  0  0
    4.5788   -4.4464    7.3760 C   0  0  0  0  0  0  0  0  0  0  0  0
    5.2936   -4.6344    6.2461 N   0  0  0  0  0  0  0  0  0  0  0  0
    4.9927   -3.8921    5.1387 C   0  0  0  0  0  0  0  0  0  0  0  0
    5.9011   -4.1805    3.9926 C   0  0  0  0  0  0  0  0  0  0  0  0
    6.3200   -5.5024    3.7282 C   0  0  0  0  0  0  0  0  0  0  0  0
    7.0683   -5.8176    2.5889 C   0  0  0  0  0  0  0  0  0  0  0  0
    7.4032   -4.8134    1.6931 C   0  0  0  0  0  0  0  0  0  0  0  0
    8.0612   -5.1195    0.5677 F   0  0  0  0  0  0  0  0  0  0  0  0
    7.0630   -3.4940    1.9497 C   0  0  0  0  0  0  0  0  0  0  0  0
    6.3554   -3.1775    3.1134 C   0  0  0  0  0  0  0  0  0  0  0  0
    2.8593   -3.3386    8.7996 C   0  0  0  0  0  0  0  0  0  0  0  0
    1.9503   -2.3238    8.7867 F   0  0  0  0  0  0  0  0  0  0  0  0
    2.1750   -4.4479    9.1903 F   0  0  0  0  0  0  0  0  0  0  0  0
    3.7186   -3.0510    9.8157 F   0  0  0  0  0  0  0  0  0  0  0  0
    3.0177    2.3256    0.1423 H   0  0  0  0  0  0  0  0  0  0  0  0
    4.2374    1.2559   -0.3892 H   0  0  0  0  0  0  0  0  0  0  0  0
    2.4074    0.9195    2.9871 H   0  0  0  0  0  0  0  0  0  0  0  0
    3.1102   -0.3369    4.9715 H   0  0  0  0  0  0  0  0  0  0  0  0
    3.5767   -3.8806    2.5344 H   0  0  0  0  0  0  0  0  0  0  0  0
    3.0277   -2.5816    0.5468 H   0  0  0  0  0  0  0  0  0  0  0  0
    2.3960   -2.0928    6.4030 H   0  0  0  0  0  0  0  0  0  0  0  0
    4.8685   -5.0818    8.2110 H   0  0  0  0  0  0  0  0  0  0  0  0
    6.0448   -6.3054    4.4112 H   0  0  0  0  0  0  0  0  0  0  0  0
    7.3719   -6.8404    2.3900 H   0  0  0  0  0  0  0  0  0  0  0  0
    7.3332   -2.7194    1.2394 H   0  0  0  0  0  0  0  0  0  0  0  0
    6.1177   -2.1323    3.2997 H   0  0  0  0  0  0  0  0  0  0  0  0
  1  2  1  0  0  0  0
  1 28  1  0  0  0  0
  1 29  1  0  0  0  0
  2  3  2  0  0  0  0
  2  4  2  0  0  0  0
  2  5  1  0  0  0  0
  5  6  1  0  0  0  0
  5 10  2  0  0  0  0
  6  7  2  0  0  0  0
  6 30  1  0  0  0  0
  7  8  1  0  0  0  0
  7 31  1  0  0  0  0
  8  9  2  0  0  0  0
  8 11  1  0  0  0  0
  9 10  1  0  0  0  0
  9 32  1  0  0  0  0
 10 33  1  0  0  0  0
 11 12  1  0  0  0  0
 11 16  2  0  0  0  0
 12 13  2  0  0  0  0
 12 34  1  0  0  0  0
 13 14  1  0  0  0  0
 13 24  1  0  0  0  0
 14 15  2  0  0  0  0
 14 35  1  0  0  0  0
 15 16  1  0  0  0  0
 16 17  1  0  0  0  0
 17 18  1  0  0  0  0
 17 23  2  0  0  0  0
 18 19  2  0  0  0  0
 18 36  1  0  0  0  0
 19 20  1  0  0  0  0
 19 37  1  0  0  0  0
 20 21  1  0  0  0  0
 20 22  2  0  0  0  0
 22 23  1  0  0  0  0
 22 38  1  0  0  0  0
 23 39  1  0  0  0  0
 24 25  1  0  0  0  0
 24 26  1  0  0  0  0
 24 27  1  0  0  0  0
M  END
$$$$
