
 OpenBabel07142515513D

 63 66  0  0  1  0  0  0  0  0999 V2000
   -1.6461    2.8440    0.0240 C   0  0  0  0  0  0  0  0  0  0  0  0
   -1.0448    1.4623   -0.0597 C   0  0  0  0  0  0  0  0  0  0  0  0
   -1.8666    0.3263   -0.3195 C   0  0  0  0  0  0  0  0  0  0  0  0
   -3.3707    0.4146   -0.5357 C   0  0  0  0  0  0  0  0  0  0  0  0
   -4.2297   -0.5545    0.2840 C   0  0  0  0  0  0  0  0  0  0  0  0
   -4.4228   -0.2049    1.7409 C   0  0  0  0  0  0  0  0  0  0  0  0
   -3.3266    0.1982    2.4100 O   0  0  0  0  0  0  0  0  0  0  0  0
   -5.4963   -0.3499    2.3115 O   0  0  0  0  0  0  0  0  0  0  0  0
   -1.2676   -0.9406   -0.4463 C   0  0  0  0  0  0  0  0  0  0  0  0
    0.1002   -1.1082   -0.2748 C   0  0  0  0  0  0  0  0  0  0  0  0
    0.9003   -0.0054   -0.0074 C   0  0  0  0  0  0  0  0  0  0  0  0
    0.3536    1.2828    0.0856 C   0  0  0  0  0  0  0  0  0  0  0  0
    1.2230    2.3885    0.3050 N   0  0  0  0  0  0  0  0  0  0  0  0
    2.4187    2.5132   -0.3950 C   0  0  0  0  0  0  0  0  0  0  0  0
    2.8004    1.6908   -1.2325 O   0  0  0  0  0  0  0  0  0  0  0  0
    3.2148    3.8205   -0.1493 C   0  0  3  0  0  0  0  0  0  0  0  0
    3.0885    4.7022   -1.4184 C   0  0  0  0  0  0  0  0  0  0  0  0
    1.6595    5.1625   -1.7282 C   0  0  0  0  0  0  0  0  0  0  0  0
    1.8615    6.2336   -2.7926 C   0  0  0  0  0  0  0  0  0  0  0  0
    3.1880    6.9051   -2.4446 C   0  0  0  0  0  0  0  0  0  0  0  0
    3.8430    6.0352   -1.3677 C   0  0  0  0  0  0  0  0  0  0  0  0
    4.6640    3.4679    0.1898 C   0  0  0  0  0  0  0  0  0  0  0  0
    5.4685    2.7823   -0.7384 C   0  0  0  0  0  0  0  0  0  0  0  0
    6.7306    2.2963   -0.3869 C   0  0  0  0  0  0  0  0  0  0  0  0
    7.2701    2.4954    0.8922 C   0  0  0  0  0  0  0  0  0  0  0  0
    6.4940    3.2553    1.7884 C   0  0  0  0  0  0  0  0  0  0  0  0
    5.2118    3.7265    1.4517 C   0  0  0  0  0  0  0  0  0  0  0  0
    8.5761    1.9010    1.2742 C   0  0  0  0  0  0  0  0  0  0  0  0
    9.6008    1.6804    0.3465 C   0  0  0  0  0  0  0  0  0  0  0  0
   10.8059    1.1121    0.6184 N   0  0  0  0  0  0  0  0  0  0  0  0
   11.0187    0.7394    1.8987 C   0  0  0  0  0  0  0  0  0  0  0  0
   10.0843    0.9081    2.9052 C   0  0  0  0  0  0  0  0  0  0  0  0
   10.4261    0.4119    4.5132 Cl  0  0  0  0  0  0  0  0  0  0  0  0
    8.8547    1.4864    2.5878 C   0  0  0  0  0  0  0  0  0  0  0  0
   -2.4509    2.9779   -0.7033 H   0  0  0  0  0  0  0  0  0  0  0  0
   -0.9252    3.6272   -0.2262 H   0  0  0  0  0  0  0  0  0  0  0  0
   -2.0253    3.0238    1.0342 H   0  0  0  0  0  0  0  0  0  0  0  0
   -3.5423    0.2095   -1.6018 H   0  0  0  0  0  0  0  0  0  0  0  0
   -3.7472    1.4240   -0.3558 H   0  0  0  0  0  0  0  0  0  0  0  0
   -3.8908   -1.5919    0.2174 H   0  0  0  0  0  0  0  0  0  0  0  0
   -5.2354   -0.5239   -0.1587 H   0  0  0  0  0  0  0  0  0  0  0  0
   -2.4929    0.1830    1.9046 H   0  0  0  0  0  0  0  0  0  0  0  0
   -1.8586   -1.8196   -0.7018 H   0  0  0  0  0  0  0  0  0  0  0  0
    0.5503   -2.0935   -0.3724 H   0  0  0  0  0  0  0  0  0  0  0  0
    1.9699   -0.1647    0.1203 H   0  0  0  0  0  0  0  0  0  0  0  0
    0.8259    3.2352    0.6853 H   0  0  0  0  0  0  0  0  0  0  0  0
    2.7711    4.3546    0.7038 H   0  0  0  0  0  0  0  0  0  0  0  0
    3.4494    4.1406   -2.2917 H   0  0  0  0  0  0  0  0  0  0  0  0
    1.1825    5.5976   -0.8420 H   0  0  0  0  0  0  0  0  0  0  0  0
    1.0245    4.3514   -2.0974 H   0  0  0  0  0  0  0  0  0  0  0  0
    1.0314    6.9454   -2.8271 H   0  0  0  0  0  0  0  0  0  0  0  0
    1.9349    5.7667   -3.7828 H   0  0  0  0  0  0  0  0  0  0  0  0
    3.0322    7.9250   -2.0766 H   0  0  0  0  0  0  0  0  0  0  0  0
    3.8220    6.9748   -3.3363 H   0  0  0  0  0  0  0  0  0  0  0  0
    3.7277    6.5156   -0.3889 H   0  0  0  0  0  0  0  0  0  0  0  0
    4.9140    5.9124   -1.5568 H   0  0  0  0  0  0  0  0  0  0  0  0
    5.0923    2.5600   -1.7327 H   0  0  0  0  0  0  0  0  0  0  0  0
    7.2588    1.7086   -1.1361 H   0  0  0  0  0  0  0  0  0  0  0  0
    6.8724    3.4836    2.7843 H   0  0  0  0  0  0  0  0  0  0  0  0
    4.6450    4.2773    2.1989 H   0  0  0  0  0  0  0  0  0  0  0  0
    9.4912    1.9654   -0.6978 H   0  0  0  0  0  0  0  0  0  0  0  0
   11.9877    0.2893    2.0936 H   0  0  0  0  0  0  0  0  0  0  0  0
    8.1086    1.5898    3.3710 H   0  0  0  0  0  0  0  0  0  0  0  0
  1  2  1  0  0  0  0
  1 35  1  0  0  0  0
  1 36  1  0  0  0  0
  1 37  1  0  0  0  0
  2  3  1  0  0  0  0
  2 12  2  0  0  0  0
  3  4  1  0  0  0  0
  3  9  2  0  0  0  0
  4  5  1  0  0  0  0
  4 38  1  0  0  0  0
  4 39  1  0  0  0  0
  5  6  1  0  0  0  0
  5 40  1  0  0  0  0
  5 41  1  0  0  0  0
  6  7  1  0  0  0  0
  6  8  2  0  0  0  0
  7 42  1  0  0  0  0
  9 10  1  0  0  0  0
  9 43  1  0  0  0  0
 10 11  2  0  0  0  0
 10 44  1  0  0  0  0
 11 12  1  0  0  0  0
 11 45  1  0  0  0  0
 12 13  1  0  0  0  0
 13 14  1  0  0  0  0
 13 46  1  0  0  0  0
 14 15  2  0  0  0  0
 14 16  1  0  0  0  0
 16 17  1  0  0  0  0
 16 22  1  0  0  0  0
 16 47  1  0  0  0  0
 17 18  1  0  0  0  0
 17 21  1  0  0  0  0
 17 48  1  0  0  0  0
 18 19  1  0  0  0  0
 18 49  1  0  0  0  0
 18 50  1  0  0  0  0
 19 20  1  0  0  0  0
 19 51  1  0  0  0  0
 19 52  1  0  0  0  0
 20 21  1  0  0  0  0
 20 53  1  0  0  0  0
 20 54  1  0  0  0  0
 21 55  1  0  0  0  0
 21 56  1  0  0  0  0
 22 23  1  0  0  0  0
 22 27  2  0  0  0  0
 23 24  2  0  0  0  0
 23 57  1  0  0  0  0
 24 25  1  0  0  0  0
 24 58  1  0  0  0  0
 25 26  2  0  0  0  0
 25 28  1  0  0  0  0
 26 27  1  0  0  0  0
 26 59  1  0  0  0  0
 27 60  1  0  0  0  0
 28 29  1  0  0  0  0
 28 34  2  0  0  0  0
 29 30  2  0  0  0  0
 29 61  1  0  0  0  0
 30 31  1  0  0  0  0
 31 32  2  0  0  0  0
 31 62  1  0  0  0  0
 32 33  1  0  0  0  0
 32 34  1  0  0  0  0
 34 63  1  0  0  0  0
M  END
$$$$
