
 OpenBabel07142516373D

 43 45  0  0  0  0  0  0  0  0999 V2000
    1.8195    2.6288    0.7276 C   0  0  0  0  0  0  0  0  0  0  0  0
    1.2069    1.3063    0.3409 C   0  0  0  0  0  0  0  0  0  0  0  0
   -0.2043    1.2596    0.3408 C   0  0  0  0  0  0  0  0  0  0  0  0
   -0.8876    0.1586   -0.1571 C   0  0  0  0  0  0  0  0  0  0  0  0
   -2.6071    0.1560   -0.1811 Cl  0  0  0  0  0  0  0  0  0  0  0  0
   -0.1843   -0.9227   -0.6615 C   0  0  0  0  0  0  0  0  0  0  0  0
    1.2227   -0.9502   -0.6092 C   0  0  0  0  0  0  0  0  0  0  0  0
    1.8969   -2.1702   -1.1966 C   0  0  0  0  0  0  0  0  0  0  0  0
    1.9455    0.1558   -0.0620 C   0  0  0  0  0  0  0  0  0  0  0  0
    3.4308    0.0677    0.0351 C   0  0  0  0  0  0  0  0  0  0  0  0
    4.1762   -0.4104   -0.9548 N   0  0  0  0  0  0  0  0  0  0  0  0
    5.5000   -0.2801   -0.5895 C   0  0  0  0  0  0  0  0  0  0  0  0
    5.5558    0.3424    0.6397 C   0  0  0  0  0  0  0  0  0  0  0  0
    4.2597    0.4243    1.1168 N   0  0  0  0  0  0  0  0  0  0  0  0
    3.9215    0.8087    2.4557 C   0  0  0  0  0  0  0  0  0  0  0  0
    4.8087    1.6005    3.2075 C   0  0  0  0  0  0  0  0  0  0  0  0
    4.4241    2.1105    4.4548 C   0  0  0  0  0  0  0  0  0  0  0  0
    3.1429    1.8450    4.9448 C   0  0  0  0  0  0  0  0  0  0  0  0
    2.2706    1.0284    4.2281 C   0  0  0  0  0  0  0  0  0  0  0  0
    2.6784    0.4729    3.0121 C   0  0  0  0  0  0  0  0  0  0  0  0
    2.6663    2.4292    6.5466 S   0  0  0  0  0  0  0  0  0  0  0  0
    2.2172    4.0225    6.2533 N   0  0  0  0  0  0  0  0  0  0  0  0
    1.4645    1.7555    6.9627 O   0  0  0  0  0  0  0  0  0  0  0  0
    3.8464    2.5002    7.3801 O   0  0  0  0  0  0  0  0  0  0  0  0
    6.6445   -0.7652   -1.4326 C   0  0  0  0  0  0  0  0  0  0  0  0
    6.2552   -1.4859   -2.5150 F   0  0  0  0  0  0  0  0  0  0  0  0
    7.4024    0.2659   -1.8925 F   0  0  0  0  0  0  0  0  0  0  0  0
    7.4823   -1.5648   -0.7148 F   0  0  0  0  0  0  0  0  0  0  0  0
    1.0427    3.3894    0.8918 H   0  0  0  0  0  0  0  0  0  0  0  0
    2.4754    2.9980   -0.0653 H   0  0  0  0  0  0  0  0  0  0  0  0
    2.3694    2.6010    1.6639 H   0  0  0  0  0  0  0  0  0  0  0  0
   -0.7770    2.1076    0.7103 H   0  0  0  0  0  0  0  0  0  0  0  0
   -0.7323   -1.7555   -1.0986 H   0  0  0  0  0  0  0  0  0  0  0  0
    1.1649   -2.9472   -1.4488 H   0  0  0  0  0  0  0  0  0  0  0  0
    2.5956   -2.6169   -0.4841 H   0  0  0  0  0  0  0  0  0  0  0  0
    2.4132   -1.9108   -2.1265 H   0  0  0  0  0  0  0  0  0  0  0  0
    6.4185    0.6180    1.2272 H   0  0  0  0  0  0  0  0  0  0  0  0
    5.7897    1.8858    2.8348 H   0  0  0  0  0  0  0  0  0  0  0  0
    5.1196    2.7246    5.0228 H   0  0  0  0  0  0  0  0  0  0  0  0
    1.2692    0.8211    4.5997 H   0  0  0  0  0  0  0  0  0  0  0  0
    1.9832   -0.1940    2.5096 H   0  0  0  0  0  0  0  0  0  0  0  0
    1.2274    4.1325    6.4750 H   0  0  0  0  0  0  0  0  0  0  0  0
    2.8169    4.6455    6.7975 H   0  0  0  0  0  0  0  0  0  0  0  0
  1  2  1  0  0  0  0
  1 29  1  0  0  0  0
  1 30  1  0  0  0  0
  1 31  1  0  0  0  0
  2  3  1  0  0  0  0
  2  9  2  0  0  0  0
  3  4  2  0  0  0  0
  3 32  1  0  0  0  0
  4  5  1  0  0  0  0
  4  6  1  0  0  0  0
  6  7  2  0  0  0  0
  6 33  1  0  0  0  0
  7  8  1  0  0  0  0
  7  9  1  0  0  0  0
  8 34  1  0  0  0  0
  8 35  1  0  0  0  0
  8 36  1  0  0  0  0
  9 10  1  0  0  0  0
 10 11  2  0  0  0  0
 10 14  1  0  0  0  0
 11 12  1  0  0  0  0
 12 13  2  0  0  0  0
 12 25  1  0  0  0  0
 13 14  1  0  0  0  0
 13 37  1  0  0  0  0
 14 15  1  0  0  0  0
 15 16  1  0  0  0  0
 15 20  2  0  0  0  0
 16 17  2  0  0  0  0
 16 38  1  0  0  0  0
 17 18  1  0  0  0  0
 17 39  1  0  0  0  0
 18 19  2  0  0  0  0
 18 21  1  0  0  0  0
 19 20  1  0  0  0  0
 19 40  1  0  0  0  0
 20 41  1  0  0  0  0
 21 22  1  0  0  0  0
 21 23  2  0  0  0  0
 21 24  2  0  0  0  0
 22 42  1  0  0  0  0
 22 43  1  0  0  0  0
 25 26  1  0  0  0  0
 25 27  1  0  0  0  0
 25 28  1  0  0  0  0
M  END
$$$$
