
 OpenBabel07142517463D

 52 54  0  0  0  0  0  0  0  0999 V2000
    1.0221    0.0290    0.0354 C   0  0  0  0  0  0  0  0  0  0  0  0
    2.5153   -0.0334   -0.0556 C   0  0  0  0  0  0  0  0  0  0  0  0
    3.3955    1.0409   -0.0750 C   0  0  0  0  0  0  0  0  0  0  0  0
    3.0576    2.5059   -0.0506 C   0  0  0  0  0  0  0  0  0  0  0  0
    2.8149    2.9858    1.3689 C   0  0  0  0  0  0  0  0  0  0  0  0
    3.3579    2.5478    2.3745 O   0  0  0  0  0  0  0  0  0  0  0  0
    1.8753    3.9772    1.3796 O   0  0  0  0  0  0  0  0  0  0  0  0
    1.2422    4.1957    2.6568 C   0  0  0  0  0  0  0  0  0  0  0  0
    2.0986    5.0020    3.6302 C   0  0  0  0  0  0  0  0  0  0  0  0
    2.3040    6.3236    3.1371 O   0  0  0  0  0  0  0  0  0  0  0  0
    4.7003    0.4999   -0.0617 C   0  0  0  0  0  0  0  0  0  0  0  0
    4.6285   -0.8855   -0.0304 C   0  0  0  0  0  0  0  0  0  0  0  0
    5.7830   -1.8149   -0.0702 C   0  0  0  0  0  0  0  0  0  0  0  0
    6.9684   -1.4999    0.6176 C   0  0  0  0  0  0  0  0  0  0  0  0
    8.0437   -2.3995    0.6575 C   0  0  0  0  0  0  0  0  0  0  0  0
    7.9225   -3.6422    0.0370 C   0  0  0  0  0  0  0  0  0  0  0  0
    6.7828   -3.9526   -0.6995 C   0  0  0  0  0  0  0  0  0  0  0  0
    5.7453   -3.0201   -0.7881 C   0  0  0  0  0  0  0  0  0  0  0  0
    9.2469   -4.8180    0.1265 S   0  0  0  0  0  0  0  0  0  0  0  0
    8.9228   -5.7003    1.6369 C   0  0  0  0  0  0  0  0  0  0  0  0
    9.0951   -5.7450   -0.9726 O   0  0  0  0  0  0  0  0  0  0  0  0
   10.4807   -4.0718    0.3020 O   0  0  0  0  0  0  0  0  0  0  0  0
    3.2585   -1.2212   -0.0033 N   0  0  0  0  0  0  0  0  0  0  0  0
    2.7092   -2.5469    0.0531 C   0  0  0  0  0  0  0  0  0  0  0  0
    3.3003   -3.5295    0.8642 C   0  0  0  0  0  0  0  0  0  0  0  0
    2.9091   -4.8665    0.7476 C   0  0  0  0  0  0  0  0  0  0  0  0
    1.8846   -5.2080   -0.1253 C   0  0  0  0  0  0  0  0  0  0  0  0
    1.5339   -6.4931   -0.2631 F   0  0  0  0  0  0  0  0  0  0  0  0
    1.2347   -4.2372   -0.8760 C   0  0  0  0  0  0  0  0  0  0  0  0
    1.6531   -2.9060   -0.7977 C   0  0  0  0  0  0  0  0  0  0  0  0
    0.6803    1.0452    0.2590 H   0  0  0  0  0  0  0  0  0  0  0  0
    0.6427   -0.6150    0.8344 H   0  0  0  0  0  0  0  0  0  0  0  0
    0.5573   -0.2476   -0.9144 H   0  0  0  0  0  0  0  0  0  0  0  0
    2.1551    2.6744   -0.6503 H   0  0  0  0  0  0  0  0  0  0  0  0
    3.8633    3.1022   -0.4904 H   0  0  0  0  0  0  0  0  0  0  0  0
    0.9571    3.2300    3.0902 H   0  0  0  0  0  0  0  0  0  0  0  0
    0.3192    4.7442    2.4421 H   0  0  0  0  0  0  0  0  0  0  0  0
    3.0783    4.5520    3.8058 H   0  0  0  0  0  0  0  0  0  0  0  0
    1.5823    5.0843    4.5925 H   0  0  0  0  0  0  0  0  0  0  0  0
    2.7811    6.2342    2.2938 H   0  0  0  0  0  0  0  0  0  0  0  0
    5.6199    1.0731   -0.0753 H   0  0  0  0  0  0  0  0  0  0  0  0
    7.0677   -0.5482    1.1377 H   0  0  0  0  0  0  0  0  0  0  0  0
    8.9576   -2.1187    1.1780 H   0  0  0  0  0  0  0  0  0  0  0  0
    6.6831   -4.9098   -1.2066 H   0  0  0  0  0  0  0  0  0  0  0  0
    4.8831   -3.2742   -1.4004 H   0  0  0  0  0  0  0  0  0  0  0  0
    7.9479   -6.1864    1.5625 H   0  0  0  0  0  0  0  0  0  0  0  0
    8.9437   -5.0006    2.4738 H   0  0  0  0  0  0  0  0  0  0  0  0
    9.7027   -6.4519    1.7630 H   0  0  0  0  0  0  0  0  0  0  0  0
    4.0995   -3.2792    1.5586 H   0  0  0  0  0  0  0  0  0  0  0  0
    3.4153   -5.6441    1.3108 H   0  0  0  0  0  0  0  0  0  0  0  0
    0.4355   -4.5271   -1.5511 H   0  0  0  0  0  0  0  0  0  0  0  0
    1.1945   -2.1917   -1.4731 H   0  0  0  0  0  0  0  0  0  0  0  0
  1  2  1  0  0  0  0
  1 31  1  0  0  0  0
  1 32  1  0  0  0  0
  1 33  1  0  0  0  0
  2  3  2  0  0  0  0
  2 23  1  0  0  0  0
  3  4  1  0  0  0  0
  3 11  1  0  0  0  0
  4  5  1  0  0  0  0
  4 34  1  0  0  0  0
  4 35  1  0  0  0  0
  5  6  2  0  0  0  0
  5  7  1  0  0  0  0
  7  8  1  0  0  0  0
  8  9  1  0  0  0  0
  8 36  1  0  0  0  0
  8 37  1  0  0  0  0
  9 10  1  0  0  0  0
  9 38  1  0  0  0  0
  9 39  1  0  0  0  0
 10 40  1  0  0  0  0
 11 12  2  0  0  0  0
 11 41  1  0  0  0  0
 12 13  1  0  0  0  0
 12 23  1  0  0  0  0
 13 14  1  0  0  0  0
 13 18  2  0  0  0  0
 14 15  2  0  0  0  0
 14 42  1  0  0  0  0
 15 16  1  0  0  0  0
 15 43  1  0  0  0  0
 16 17  2  0  0  0  0
 16 19  1  0  0  0  0
 17 18  1  0  0  0  0
 17 44  1  0  0  0  0
 18 45  1  0  0  0  0
 19 20  1  0  0  0  0
 19 21  2  0  0  0  0
 19 22  2  0  0  0  0
 20 46  1  0  0  0  0
 20 47  1  0  0  0  0
 20 48  1  0  0  0  0
 23 24  1  0  0  0  0
 24 25  1  0  0  0  0
 24 30  2  0  0  0  0
 25 26  2  0  0  0  0
 25 49  1  0  0  0  0
 26 27  1  0  0  0  0
 26 50  1  0  0  0  0
 27 28  1  0  0  0  0
 27 29  2  0  0  0  0
 29 30  1  0  0  0  0
 29 51  1  0  0  0  0
 30 52  1  0  0  0  0
M  END
$$$$
