
 OpenBabel07142517353D

 40 42  0  0  0  0  0  0  0  0999 V2000
    2.4803   -0.1684   -0.0049 C   0  0  0  0  0  0  0  0  0  0  0  0
    0.9854   -0.1020    0.0661 C   0  0  0  0  0  0  0  0  0  0  0  0
    0.2347   -1.1746    0.5356 C   0  0  0  0  0  0  0  0  0  0  0  0
   -1.1592   -1.0861    0.5132 C   0  0  0  0  0  0  0  0  0  0  0  0
   -1.7815    0.0632    0.0222 C   0  0  0  0  0  0  0  0  0  0  0  0
   -0.9393    1.1108   -0.3403 C   0  0  0  0  0  0  0  0  0  0  0  0
    0.4140    1.0464   -0.3618 N   0  0  0  0  0  0  0  0  0  0  0  0
   -3.2464    0.1389   -0.0666 C   0  0  0  0  0  0  0  0  0  0  0  0
   -4.0525   -0.4146    0.8265 N   0  0  0  0  0  0  0  0  0  0  0  0
   -5.3357    0.0143    0.5430 C   0  0  0  0  0  0  0  0  0  0  0  0
   -5.3018    0.8248   -0.5756 C   0  0  0  0  0  0  0  0  0  0  0  0
   -3.9989    0.8293   -1.0281 N   0  0  0  0  0  0  0  0  0  0  0  0
   -3.5598    1.4515   -2.2305 C   0  0  0  0  0  0  0  0  0  0  0  0
   -4.1649    2.6418   -2.6620 C   0  0  0  0  0  0  0  0  0  0  0  0
   -3.6426    3.3328   -3.7599 C   0  0  0  0  0  0  0  0  0  0  0  0
   -2.5249    2.8259   -4.4289 C   0  0  0  0  0  0  0  0  0  0  0  0
   -1.9691    1.6013   -4.0595 C   0  0  0  0  0  0  0  0  0  0  0  0
   -2.4958    0.9093   -2.9671 C   0  0  0  0  0  0  0  0  0  0  0  0
   -1.8192    3.7308   -5.7873 S   0  0  0  0  0  0  0  0  0  0  0  0
   -0.5668    4.7239   -5.0145 C   0  0  0  0  0  0  0  0  0  0  0  0
   -1.1656    2.7701   -6.6545 O   0  0  0  0  0  0  0  0  0  0  0  0
   -2.8477    4.6172   -6.2971 O   0  0  0  0  0  0  0  0  0  0  0  0
   -6.5311   -0.3803    1.3645 C   0  0  0  0  0  0  0  0  0  0  0  0
   -6.2241   -1.1885    2.4109 F   0  0  0  0  0  0  0  0  0  0  0  0
   -7.1615    0.7098    1.8798 F   0  0  0  0  0  0  0  0  0  0  0  0
   -7.4552   -1.0397    0.6149 F   0  0  0  0  0  0  0  0  0  0  0  0
    2.8683   -1.0988    0.4200 H   0  0  0  0  0  0  0  0  0  0  0  0
    2.9158    0.6698    0.5476 H   0  0  0  0  0  0  0  0  0  0  0  0
    2.8029   -0.1083   -1.0496 H   0  0  0  0  0  0  0  0  0  0  0  0
    0.7155   -2.0731    0.9090 H   0  0  0  0  0  0  0  0  0  0  0  0
   -1.7569   -1.9200    0.8766 H   0  0  0  0  0  0  0  0  0  0  0  0
   -1.3295    2.0724   -0.6610 H   0  0  0  0  0  0  0  0  0  0  0  0
   -6.1051    1.3123   -1.1116 H   0  0  0  0  0  0  0  0  0  0  0  0
   -5.0022    3.0853   -2.1277 H   0  0  0  0  0  0  0  0  0  0  0  0
   -4.0992    4.2696   -4.0714 H   0  0  0  0  0  0  0  0  0  0  0  0
   -1.1227    1.1830   -4.6014 H   0  0  0  0  0  0  0  0  0  0  0  0
   -2.0556   -0.0547   -2.7138 H   0  0  0  0  0  0  0  0  0  0  0  0
    0.1668    4.0714   -4.5370 H   0  0  0  0  0  0  0  0  0  0  0  0
   -1.0351    5.3833   -4.2812 H   0  0  0  0  0  0  0  0  0  0  0  0
   -0.0816    5.3199   -5.7909 H   0  0  0  0  0  0  0  0  0  0  0  0
  1  2  1  0  0  0  0
  1 27  1  0  0  0  0
  1 28  1  0  0  0  0
  1 29  1  0  0  0  0
  2  3  1  0  0  0  0
  2  7  2  0  0  0  0
  3  4  2  0  0  0  0
  3 30  1  0  0  0  0
  4  5  1  0  0  0  0
  4 31  1  0  0  0  0
  5  6  2  0  0  0  0
  5  8  1  0  0  0  0
  6  7  1  0  0  0  0
  6 32  1  0  0  0  0
  8  9  2  0  0  0  0
  8 12  1  0  0  0  0
  9 10  1  0  0  0  0
 10 11  2  0  0  0  0
 10 23  1  0  0  0  0
 11 12  1  0  0  0  0
 11 33  1  0  0  0  0
 12 13  1  0  0  0  0
 13 14  1  0  0  0  0
 13 18  2  0  0  0  0
 14 15  2  0  0  0  0
 14 34  1  0  0  0  0
 15 16  1  0  0  0  0
 15 35  1  0  0  0  0
 16 17  2  0  0  0  0
 16 19  1  0  0  0  0
 17 18  1  0  0  0  0
 17 36  1  0  0  0  0
 18 37  1  0  0  0  0
 19 20  1  0  0  0  0
 19 21  2  0  0  0  0
 19 22  2  0  0  0  0
 20 38  1  0  0  0  0
 20 39  1  0  0  0  0
 20 40  1  0  0  0  0
 23 24  1  0  0  0  0
 23 25  1  0  0  0  0
 23 26  1  0  0  0  0
M  END
$$$$
