
 OpenBabel07142516343D

 40 42  0  0  0  0  0  0  0  0999 V2000
    2.3578    1.2011    1.1641 C   0  0  0  0  0  0  0  0  0  0  0  0
    1.2243    0.4034    0.5919 C   0  0  0  0  0  0  0  0  0  0  0  0
    0.0875    1.0388    0.0868 C   0  0  0  0  0  0  0  0  0  0  0  0
   -0.9794    0.2767   -0.3663 C   0  0  0  0  0  0  0  0  0  0  0  0
   -2.0660    0.8866   -0.8586 F   0  0  0  0  0  0  0  0  0  0  0  0
   -0.9359   -1.1115   -0.3352 C   0  0  0  0  0  0  0  0  0  0  0  0
    0.2304   -1.7749    0.0683 C   0  0  0  0  0  0  0  0  0  0  0  0
    1.2918   -1.0011    0.5667 C   0  0  0  0  0  0  0  0  0  0  0  0
    0.3695   -3.2427    0.0016 C   0  0  0  0  0  0  0  0  0  0  0  0
    1.0622   -3.9448    0.8879 N   0  0  0  0  0  0  0  0  0  0  0  0
    0.8261   -5.2830    0.6270 C   0  0  0  0  0  0  0  0  0  0  0  0
   -0.0172   -5.3852   -0.4615 C   0  0  0  0  0  0  0  0  0  0  0  0
   -0.2250   -4.1044   -0.9288 N   0  0  0  0  0  0  0  0  0  0  0  0
   -0.9120   -3.7917   -2.1362 C   0  0  0  0  0  0  0  0  0  0  0  0
   -1.9938   -4.5863   -2.5445 C   0  0  0  0  0  0  0  0  0  0  0  0
   -2.7245   -4.2339   -3.6818 C   0  0  0  0  0  0  0  0  0  0  0  0
   -2.3704   -3.0942   -4.4080 C   0  0  0  0  0  0  0  0  0  0  0  0
   -1.2696   -2.3238   -4.0344 C   0  0  0  0  0  0  0  0  0  0  0  0
   -0.5298   -2.6839   -2.9076 C   0  0  0  0  0  0  0  0  0  0  0  0
   -3.2916   -2.6533   -5.8519 S   0  0  0  0  0  0  0  0  0  0  0  0
   -4.5044   -1.6948   -5.2012 N   0  0  0  0  0  0  0  0  0  0  0  0
   -2.4930   -1.7855   -6.6815 O   0  0  0  0  0  0  0  0  0  0  0  0
   -3.9485   -3.8350   -6.3665 O   0  0  0  0  0  0  0  0  0  0  0  0
    1.4260   -6.3991    1.4331 C   0  0  0  0  0  0  0  0  0  0  0  0
    2.2239   -5.9699    2.4437 F   0  0  0  0  0  0  0  0  0  0  0  0
    0.4634   -7.1804    1.9942 F   0  0  0  0  0  0  0  0  0  0  0  0
    2.1822   -7.2221    0.6569 F   0  0  0  0  0  0  0  0  0  0  0  0
    2.1572    2.2761    1.1072 H   0  0  0  0  0  0  0  0  0  0  0  0
    3.2814    0.9998    0.6135 H   0  0  0  0  0  0  0  0  0  0  0  0
    2.4995    0.9439    2.2187 H   0  0  0  0  0  0  0  0  0  0  0  0
    0.0113    2.1214    0.0548 H   0  0  0  0  0  0  0  0  0  0  0  0
   -1.8174   -1.6504   -0.6670 H   0  0  0  0  0  0  0  0  0  0  0  0
    2.1859   -1.5009    0.9418 H   0  0  0  0  0  0  0  0  0  0  0  0
   -0.3942   -6.2590   -0.9745 H   0  0  0  0  0  0  0  0  0  0  0  0
   -2.3226   -5.4471   -1.9666 H   0  0  0  0  0  0  0  0  0  0  0  0
   -3.5775   -4.8404   -3.9824 H   0  0  0  0  0  0  0  0  0  0  0  0
   -0.9837   -1.4420   -4.6060 H   0  0  0  0  0  0  0  0  0  0  0  0
    0.3415   -2.0829   -2.6539 H   0  0  0  0  0  0  0  0  0  0  0  0
   -4.4333   -0.7469   -5.5713 H   0  0  0  0  0  0  0  0  0  0  0  0
   -5.4153   -2.1302   -5.3559 H   0  0  0  0  0  0  0  0  0  0  0  0
  1  2  1  0  0  0  0
  1 28  1  0  0  0  0
  1 29  1  0  0  0  0
  1 30  1  0  0  0  0
  2  3  1  0  0  0  0
  2  8  2  0  0  0  0
  3  4  2  0  0  0  0
  3 31  1  0  0  0  0
  4  5  1  0  0  0  0
  4  6  1  0  0  0  0
  6  7  2  0  0  0  0
  6 32  1  0  0  0  0
  7  8  1  0  0  0  0
  7  9  1  0  0  0  0
  8 33  1  0  0  0  0
  9 10  2  0  0  0  0
  9 13  1  0  0  0  0
 10 11  1  0  0  0  0
 11 12  2  0  0  0  0
 11 24  1  0  0  0  0
 12 13  1  0  0  0  0
 12 34  1  0  0  0  0
 13 14  1  0  0  0  0
 14 15  1  0  0  0  0
 14 19  2  0  0  0  0
 15 16  2  0  0  0  0
 15 35  1  0  0  0  0
 16 17  1  0  0  0  0
 16 36  1  0  0  0  0
 17 18  2  0  0  0  0
 17 20  1  0  0  0  0
 18 19  1  0  0  0  0
 18 37  1  0  0  0  0
 19 38  1  0  0  0  0
 20 21  1  0  0  0  0
 20 22  2  0  0  0  0
 20 23  2  0  0  0  0
 21 39  1  0  0  0  0
 21 40  1  0  0  0  0
 24 25  1  0  0  0  0
 24 26  1  0  0  0  0
 24 27  1  0  0  0  0
M  END
$$$$
