
 OpenBabel07142516523D

 38 40  0  0  0  0  0  0  0  0999 V2000
    4.2093    0.9192   -0.2283 C   0  0  0  0  0  0  0  0  0  0  0  0
    2.6039    0.2701    0.1565 S   0  0  0  0  0  0  0  0  0  0  0  0
    1.8970    1.2531    0.9582 O   0  0  0  0  0  0  0  0  0  0  0  0
    2.0206   -0.2546   -1.0623 O   0  0  0  0  0  0  0  0  0  0  0  0
    2.9720   -1.1100    1.2113 C   0  0  0  0  0  0  0  0  0  0  0  0
    3.0457   -0.9251    2.5951 C   0  0  0  0  0  0  0  0  0  0  0  0
    3.3513   -2.0090    3.4221 C   0  0  0  0  0  0  0  0  0  0  0  0
    3.5874   -3.2723    2.8625 C   0  0  0  0  0  0  0  0  0  0  0  0
    3.4518   -3.4572    1.4770 C   0  0  0  0  0  0  0  0  0  0  0  0
    3.1523   -2.3737    0.6490 C   0  0  0  0  0  0  0  0  0  0  0  0
    3.9669   -4.3613    3.6993 N   0  0  0  0  0  0  0  0  0  0  0  0
    3.5337   -4.5420    4.9966 C   0  0  0  0  0  0  0  0  0  0  0  0
    3.9375   -5.8066    5.3785 C   0  0  0  0  0  0  0  0  0  0  0  0
    4.7161   -6.3522    4.3740 N   0  0  0  0  0  0  0  0  0  0  0  0
    4.8036   -5.4457    3.4116 C   0  0  0  0  0  0  0  0  0  0  0  0
    5.7167   -5.5800    2.2628 C   0  0  0  0  0  0  0  0  0  0  0  0
    5.9788   -6.8519    1.7319 C   0  0  0  0  0  0  0  0  0  0  0  0
    6.8072   -7.0067    0.6163 C   0  0  0  0  0  0  0  0  0  0  0  0
    7.3768   -5.8889    0.0100 C   0  0  0  0  0  0  0  0  0  0  0  0
    7.1528   -4.6275    0.5491 C   0  0  0  0  0  0  0  0  0  0  0  0
    7.8193   -3.2336   -0.2089 Cl  0  0  0  0  0  0  0  0  0  0  0  0
    6.3623   -4.4742    1.6878 C   0  0  0  0  0  0  0  0  0  0  0  0
    3.6251   -6.5456    6.6486 C   0  0  0  0  0  0  0  0  0  0  0  0
    2.8584   -5.7975    7.4897 F   0  0  0  0  0  0  0  0  0  0  0  0
    2.9364   -7.6937    6.4196 F   0  0  0  0  0  0  0  0  0  0  0  0
    4.7440   -6.8796    7.3419 F   0  0  0  0  0  0  0  0  0  0  0  0
    4.0798    1.7788   -0.8885 H   0  0  0  0  0  0  0  0  0  0  0  0
    4.7942    0.1457   -0.7352 H   0  0  0  0  0  0  0  0  0  0  0  0
    4.6990    1.2312    0.6961 H   0  0  0  0  0  0  0  0  0  0  0  0
    2.8769    0.0563    3.0343 H   0  0  0  0  0  0  0  0  0  0  0  0
    3.4476   -1.8283    4.4910 H   0  0  0  0  0  0  0  0  0  0  0  0
    3.5580   -4.4373    1.0173 H   0  0  0  0  0  0  0  0  0  0  0  0
    3.0628   -2.5282   -0.4248 H   0  0  0  0  0  0  0  0  0  0  0  0
    2.9000   -3.8274    5.5039 H   0  0  0  0  0  0  0  0  0  0  0  0
    5.5319   -7.7340    2.1898 H   0  0  0  0  0  0  0  0  0  0  0  0
    6.9985   -8.0006    0.2173 H   0  0  0  0  0  0  0  0  0  0  0  0
    7.9990   -6.0094   -0.8737 H   0  0  0  0  0  0  0  0  0  0  0  0
    6.2366   -3.4792    2.1045 H   0  0  0  0  0  0  0  0  0  0  0  0
  1  2  1  0  0  0  0
  1 27  1  0  0  0  0
  1 28  1  0  0  0  0
  1 29  1  0  0  0  0
  2  3  2  0  0  0  0
  2  4  2  0  0  0  0
  2  5  1  0  0  0  0
  5  6  1  0  0  0  0
  5 10  2  0  0  0  0
  6  7  2  0  0  0  0
  6 30  1  0  0  0  0
  7  8  1  0  0  0  0
  7 31  1  0  0  0  0
  8  9  2  0  0  0  0
  8 11  1  0  0  0  0
  9 10  1  0  0  0  0
  9 32  1  0  0  0  0
 10 33  1  0  0  0  0
 11 12  1  0  0  0  0
 11 15  1  0  0  0  0
 12 13  2  0  0  0  0
 12 34  1  0  0  0  0
 13 14  1  0  0  0  0
 13 23  1  0  0  0  0
 14 15  2  0  0  0  0
 15 16  1  0  0  0  0
 16 17  1  0  0  0  0
 16 22  2  0  0  0  0
 17 18  2  0  0  0  0
 17 35  1  0  0  0  0
 18 19  1  0  0  0  0
 18 36  1  0  0  0  0
 19 20  2  0  0  0  0
 19 37  1  0  0  0  0
 20 21  1  0  0  0  0
 20 22  1  0  0  0  0
 22 38  1  0  0  0  0
 23 24  1  0  0  0  0
 23 25  1  0  0  0  0
 23 26  1  0  0  0  0
M  END
$$$$
