
 OpenBabel07142516263D

 40 43  0  0  0  0  0  0  0  0999 V2000
    4.1693   -0.3524    1.0877 C   0  0  0  0  0  0  0  0  0  0  0  0
    2.6977   -0.0083    0.1580 S   0  0  0  0  0  0  0  0  0  0  0  0
    2.1814   -1.2617   -0.3557 O   0  0  0  0  0  0  0  0  0  0  0  0
    1.8647    0.8810    0.9460 O   0  0  0  0  0  0  0  0  0  0  0  0
    3.3159    0.9181   -1.2259 C   0  0  0  0  0  0  0  0  0  0  0  0
    3.7761    0.2398   -2.3532 C   0  0  0  0  0  0  0  0  0  0  0  0
    4.2442    0.9712   -3.4465 C   0  0  0  0  0  0  0  0  0  0  0  0
    4.1808    2.3757   -3.4591 C   0  0  0  0  0  0  0  0  0  0  0  0
    3.7104    3.0364   -2.3153 C   0  0  0  0  0  0  0  0  0  0  0  0
    3.2922    2.3131   -1.1938 C   0  0  0  0  0  0  0  0  0  0  0  0
    4.5023    3.1049   -4.6841 C   0  0  0  0  0  0  0  0  0  0  0  0
    4.1786    2.7942   -6.0553 C   0  0  0  0  0  0  0  0  0  0  0  0
    4.7251    3.6878   -6.8912 N   0  0  0  0  0  0  0  0  0  0  0  0
    5.3016    4.5962   -6.1019 N   0  0  0  0  0  0  0  0  0  0  0  0
    5.8946    5.6738   -6.6665 N   0  0  0  0  0  0  0  0  0  0  0  0
    6.3857    6.4936   -5.7968 C   0  0  0  0  0  0  0  0  0  0  0  0
    6.3514    6.3339   -4.3252 C   0  0  0  0  0  0  0  0  0  0  0  0
    5.7742    5.2254   -3.8478 C   0  0  0  0  0  0  0  0  0  0  0  0
    5.1978    4.3007   -4.7574 C   0  0  0  0  0  0  0  0  0  0  0  0
    3.3714    1.6892   -6.5956 C   0  0  0  0  0  0  0  0  0  0  0  0
    2.2527    1.1989   -5.9009 C   0  0  0  0  0  0  0  0  0  0  0  0
    1.5353    0.1020   -6.3841 C   0  0  0  0  0  0  0  0  0  0  0  0
    1.9003   -0.4767   -7.5924 C   0  0  0  0  0  0  0  0  0  0  0  0
    1.2103   -1.5225   -8.0573 F   0  0  0  0  0  0  0  0  0  0  0  0
    2.9723    0.0209   -8.3237 C   0  0  0  0  0  0  0  0  0  0  0  0
    3.7100    1.0999   -7.8248 C   0  0  0  0  0  0  0  0  0  0  0  0
    3.8832   -0.9303    1.9681 H   0  0  0  0  0  0  0  0  0  0  0  0
    4.6243    0.5919    1.3912 H   0  0  0  0  0  0  0  0  0  0  0  0
    4.8534   -0.9321    0.4654 H   0  0  0  0  0  0  0  0  0  0  0  0
    3.7528   -0.8471   -2.4050 H   0  0  0  0  0  0  0  0  0  0  0  0
    4.6048    0.4233   -4.3163 H   0  0  0  0  0  0  0  0  0  0  0  0
    3.6215    4.1195   -2.2919 H   0  0  0  0  0  0  0  0  0  0  0  0
    2.9205    2.8450   -0.3202 H   0  0  0  0  0  0  0  0  0  0  0  0
    6.8875    7.4085   -6.1549 H   0  0  0  0  0  0  0  0  0  0  0  0
    6.7874    7.1041   -3.7030 H   0  0  0  0  0  0  0  0  0  0  0  0
    5.7327    5.0511   -2.7794 H   0  0  0  0  0  0  0  0  0  0  0  0
    1.9298    1.6560   -4.9690 H   0  0  0  0  0  0  0  0  0  0  0  0
    0.6967   -0.2994   -5.8231 H   0  0  0  0  0  0  0  0  0  0  0  0
    3.2290   -0.4332   -9.2748 H   0  0  0  0  0  0  0  0  0  0  0  0
    4.5509    1.4807   -8.4019 H   0  0  0  0  0  0  0  0  0  0  0  0
  1  2  1  0  0  0  0
  1 27  1  0  0  0  0
  1 28  1  0  0  0  0
  1 29  1  0  0  0  0
  2  3  2  0  0  0  0
  2  4  2  0  0  0  0
  2  5  1  0  0  0  0
  5  6  1  0  0  0  0
  5 10  2  0  0  0  0
  6  7  2  0  0  0  0
  6 30  1  0  0  0  0
  7  8  1  0  0  0  0
  7 31  1  0  0  0  0
  8  9  2  0  0  0  0
  8 11  1  0  0  0  0
  9 10  1  0  0  0  0
  9 32  1  0  0  0  0
 10 33  1  0  0  0  0
 11 12  1  0  0  0  0
 11 19  2  0  0  0  0
 12 13  2  0  0  0  0
 12 20  1  0  0  0  0
 13 14  1  0  0  0  0
 14 15  1  0  0  0  0
 14 19  1  0  0  0  0
 15 16  2  0  0  0  0
 16 17  1  0  0  0  0
 16 34  1  0  0  0  0
 17 18  2  0  0  0  0
 17 35  1  0  0  0  0
 18 19  1  0  0  0  0
 18 36  1  0  0  0  0
 20 21  1  0  0  0  0
 20 26  2  0  0  0  0
 21 22  2  0  0  0  0
 21 37  1  0  0  0  0
 22 23  1  0  0  0  0
 22 38  1  0  0  0  0
 23 24  1  0  0  0  0
 23 25  2  0  0  0  0
 25 26  1  0  0  0  0
 25 39  1  0  0  0  0
 26 40  1  0  0  0  0
M  END
$$$$
